file 23195805 1547644720                                        
version 2
run General-0-20190116-18:42:21-13397
attr configname General
attr datetime 20190116-18:42:21
attr experiment General
attr inifile MultipleTrafficNetwork.ini
attr iterationvars ""
attr iterationvarsf ""
attr measurement ""
attr network nbiot.Networks.MultipleTrafficNetwork
attr processid 13397
attr repetition 0
attr replication #0
attr resultdir results/MultipleTrafficNetwork
attr runnumber 0
attr seedset 0
param **.ChannelController.netEnv 70
param **.Fleet[0].Phy.x 158
param **.Fleet[0].Phy.y 114
param **.Fleet[100].Phy.x 5
param **.Fleet[100].Phy.y 570
param **.Fleet[101].Phy.x 876
param **.Fleet[101].Phy.y 115
param **.Fleet[102].Phy.x 98
param **.Fleet[102].Phy.y 83
param **.Fleet[103].Phy.x 418
param **.Fleet[103].Phy.y 352
param **.Fleet[104].Phy.x 328
param **.Fleet[104].Phy.y 223
param **.Fleet[105].Phy.x 295
param **.Fleet[105].Phy.y 541
param **.Fleet[106].Phy.x 353
param **.Fleet[106].Phy.y 33
param **.Fleet[107].Phy.x 90
param **.Fleet[107].Phy.y 584
param **.Fleet[108].Phy.x 647
param **.Fleet[108].Phy.y 800
param **.Fleet[109].Phy.x 125
param **.Fleet[109].Phy.y 193
param **.Fleet[10].Phy.x 654
param **.Fleet[10].Phy.y 331
param **.Fleet[110].Phy.x 393
param **.Fleet[110].Phy.y 198
param **.Fleet[111].Phy.x 580
param **.Fleet[111].Phy.y 223
param **.Fleet[112].Phy.x 734
param **.Fleet[112].Phy.y 496
param **.Fleet[113].Phy.x 116
param **.Fleet[113].Phy.y 206
param **.Fleet[114].Phy.x 667
param **.Fleet[114].Phy.y 814
param **.Fleet[115].Phy.x 27
param **.Fleet[115].Phy.y 108
param **.Fleet[116].Phy.x 933
param **.Fleet[116].Phy.y 22
param **.Fleet[117].Phy.x 913
param **.Fleet[117].Phy.y 496
param **.Fleet[118].Phy.x 831
param **.Fleet[118].Phy.y 62
param **.Fleet[119].Phy.x 401
param **.Fleet[119].Phy.y 918
param **.Fleet[11].Phy.x 676
param **.Fleet[11].Phy.y 464
param **.Fleet[120].Phy.x 658
param **.Fleet[120].Phy.y 841
param **.Fleet[121].Phy.x 728
param **.Fleet[121].Phy.y 315
param **.Fleet[122].Phy.x 310
param **.Fleet[122].Phy.y 735
param **.Fleet[123].Phy.x 293
param **.Fleet[123].Phy.y 260
param **.Fleet[124].Phy.x 911
param **.Fleet[124].Phy.y 321
param **.Fleet[125].Phy.x 309
param **.Fleet[125].Phy.y 653
param **.Fleet[126].Phy.x 86
param **.Fleet[126].Phy.y 132
param **.Fleet[127].Phy.x 207
param **.Fleet[127].Phy.y 339
param **.Fleet[128].Phy.x 70
param **.Fleet[128].Phy.y 935
param **.Fleet[129].Phy.x 461
param **.Fleet[129].Phy.y 224
param **.Fleet[12].Phy.x 248
param **.Fleet[12].Phy.y 462
param **.Fleet[130].Phy.x 858
param **.Fleet[130].Phy.y 492
param **.Fleet[131].Phy.x 310
param **.Fleet[131].Phy.y 531
param **.Fleet[132].Phy.x 269
param **.Fleet[132].Phy.y 872
param **.Fleet[133].Phy.x 635
param **.Fleet[133].Phy.y 357
param **.Fleet[134].Phy.x 915
param **.Fleet[134].Phy.y 259
param **.Fleet[135].Phy.x 427
param **.Fleet[135].Phy.y 857
param **.Fleet[136].Phy.x 551
param **.Fleet[136].Phy.y 229
param **.Fleet[137].Phy.x 734
param **.Fleet[137].Phy.y 153
param **.Fleet[138].Phy.x 163
param **.Fleet[138].Phy.y 678
param **.Fleet[139].Phy.x 149
param **.Fleet[139].Phy.y 525
param **.Fleet[13].Phy.x 150
param **.Fleet[13].Phy.y 780
param **.Fleet[140].Phy.x 476
param **.Fleet[140].Phy.y 541
param **.Fleet[141].Phy.x 544
param **.Fleet[141].Phy.y 434
param **.Fleet[142].Phy.x 683
param **.Fleet[142].Phy.y 545
param **.Fleet[143].Phy.x 201
param **.Fleet[143].Phy.y 934
param **.Fleet[144].Phy.x 179
param **.Fleet[144].Phy.y 745
param **.Fleet[145].Phy.x 875
param **.Fleet[145].Phy.y 335
param **.Fleet[146].Phy.x 57
param **.Fleet[146].Phy.y 286
param **.Fleet[147].Phy.x 124
param **.Fleet[147].Phy.y 544
param **.Fleet[148].Phy.x 268
param **.Fleet[148].Phy.y 301
param **.Fleet[149].Phy.x 469
param **.Fleet[149].Phy.y 530
param **.Fleet[14].Phy.x 205
param **.Fleet[14].Phy.y 89
param **.Fleet[150].Phy.x 727
param **.Fleet[150].Phy.y 267
param **.Fleet[151].Phy.x 947
param **.Fleet[151].Phy.y 449
param **.Fleet[152].Phy.x 352
param **.Fleet[152].Phy.y 876
param **.Fleet[153].Phy.x 251
param **.Fleet[153].Phy.y 134
param **.Fleet[154].Phy.x 693
param **.Fleet[154].Phy.y 649
param **.Fleet[155].Phy.x 175
param **.Fleet[155].Phy.y 71
param **.Fleet[156].Phy.x 815
param **.Fleet[156].Phy.y 790
param **.Fleet[157].Phy.x 804
param **.Fleet[157].Phy.y 601
param **.Fleet[158].Phy.x 917
param **.Fleet[158].Phy.y 933
param **.Fleet[159].Phy.x 65
param **.Fleet[159].Phy.y 973
param **.Fleet[15].Phy.x 738
param **.Fleet[15].Phy.y 555
param **.Fleet[160].Phy.x 362
param **.Fleet[160].Phy.y 498
param **.Fleet[161].Phy.x 429
param **.Fleet[161].Phy.y 337
param **.Fleet[162].Phy.x 797
param **.Fleet[162].Phy.y 172
param **.Fleet[163].Phy.x 268
param **.Fleet[163].Phy.y 788
param **.Fleet[164].Phy.x 152
param **.Fleet[164].Phy.y 603
param **.Fleet[165].Phy.x 219
param **.Fleet[165].Phy.y 959
param **.Fleet[166].Phy.x 506
param **.Fleet[166].Phy.y 784
param **.Fleet[167].Phy.x 622
param **.Fleet[167].Phy.y 975
param **.Fleet[168].Phy.x 833
param **.Fleet[168].Phy.y 232
param **.Fleet[169].Phy.x 780
param **.Fleet[169].Phy.y 533
param **.Fleet[16].Phy.x 51
param **.Fleet[16].Phy.y 212
param **.Fleet[170].Phy.x 769
param **.Fleet[170].Phy.y 317
param **.Fleet[171].Phy.x 276
param **.Fleet[171].Phy.y 884
param **.Fleet[172].Phy.x 655
param **.Fleet[172].Phy.y 526
param **.Fleet[173].Phy.x 691
param **.Fleet[173].Phy.y 353
param **.Fleet[174].Phy.x 428
param **.Fleet[174].Phy.y 41
param **.Fleet[175].Phy.x 820
param **.Fleet[175].Phy.y 128
param **.Fleet[176].Phy.x 111
param **.Fleet[176].Phy.y 292
param **.Fleet[177].Phy.x 12
param **.Fleet[177].Phy.y 442
param **.Fleet[178].Phy.x 150
param **.Fleet[178].Phy.y 599
param **.Fleet[179].Phy.x 924
param **.Fleet[179].Phy.y 457
param **.Fleet[17].Phy.x 832
param **.Fleet[17].Phy.y 516
param **.Fleet[180].Phy.x 714
param **.Fleet[180].Phy.y 281
param **.Fleet[181].Phy.x 377
param **.Fleet[181].Phy.y 910
param **.Fleet[182].Phy.x 670
param **.Fleet[182].Phy.y 531
param **.Fleet[183].Phy.x 251
param **.Fleet[183].Phy.y 451
param **.Fleet[184].Phy.x 769
param **.Fleet[184].Phy.y 507
param **.Fleet[185].Phy.x 145
param **.Fleet[185].Phy.y 547
param **.Fleet[186].Phy.x 651
param **.Fleet[186].Phy.y 493
param **.Fleet[187].Phy.x 264
param **.Fleet[187].Phy.y 939
param **.Fleet[188].Phy.x 247
param **.Fleet[188].Phy.y 676
param **.Fleet[189].Phy.x 727
param **.Fleet[189].Phy.y 48
param **.Fleet[18].Phy.x 147
param **.Fleet[18].Phy.y 151
param **.Fleet[190].Phy.x 794
param **.Fleet[190].Phy.y 428
param **.Fleet[191].Phy.x 953
param **.Fleet[191].Phy.y 299
param **.Fleet[192].Phy.x 806
param **.Fleet[192].Phy.y 133
param **.Fleet[193].Phy.x 840
param **.Fleet[193].Phy.y 243
param **.Fleet[194].Phy.x 193
param **.Fleet[194].Phy.y 225
param **.Fleet[195].Phy.x 173
param **.Fleet[195].Phy.y 158
param **.Fleet[196].Phy.x 538
param **.Fleet[196].Phy.y 595
param **.Fleet[197].Phy.x 280
param **.Fleet[197].Phy.y 732
param **.Fleet[198].Phy.x 273
param **.Fleet[198].Phy.y 505
param **.Fleet[199].Phy.x 544
param **.Fleet[199].Phy.y 808
param **.Fleet[19].Phy.x 781
param **.Fleet[19].Phy.y 688
param **.Fleet[1].Phy.x 567
param **.Fleet[1].Phy.y 294
param **.Fleet[20].Phy.x 211
param **.Fleet[20].Phy.y 292
param **.Fleet[21].Phy.x 787
param **.Fleet[21].Phy.y 894
param **.Fleet[22].Phy.x 682
param **.Fleet[22].Phy.y 586
param **.Fleet[23].Phy.x 769
param **.Fleet[23].Phy.y 311
param **.Fleet[24].Phy.x 213
param **.Fleet[24].Phy.y 966
param **.Fleet[25].Phy.x 766
param **.Fleet[25].Phy.y 602
param **.Fleet[26].Phy.x 398
param **.Fleet[26].Phy.y 796
param **.Fleet[27].Phy.x 350
param **.Fleet[27].Phy.y 929
param **.Fleet[28].Phy.x 855
param **.Fleet[28].Phy.y 366
param **.Fleet[29].Phy.x 716
param **.Fleet[29].Phy.y 414
param **.Fleet[2].Phy.x 374
param **.Fleet[2].Phy.y 741
param **.Fleet[30].Phy.x 911
param **.Fleet[30].Phy.y 98
param **.Fleet[31].Phy.x 748
param **.Fleet[31].Phy.y 516
param **.Fleet[32].Phy.x 179
param **.Fleet[32].Phy.y 151
param **.Fleet[33].Phy.x 498
param **.Fleet[33].Phy.y 438
param **.Fleet[34].Phy.x 811
param **.Fleet[34].Phy.y 727
param **.Fleet[35].Phy.x 208
param **.Fleet[35].Phy.y 960
param **.Fleet[36].Phy.x 866
param **.Fleet[36].Phy.y 771
param **.Fleet[37].Phy.x 839
param **.Fleet[37].Phy.y 633
param **.Fleet[38].Phy.x 127
param **.Fleet[38].Phy.y 863
param **.Fleet[39].Phy.x 501
param **.Fleet[39].Phy.y 661
param **.Fleet[3].Phy.x 873
param **.Fleet[3].Phy.y 573
param **.Fleet[40].Phy.x 399
param **.Fleet[40].Phy.y 347
param **.Fleet[41].Phy.x 288
param **.Fleet[41].Phy.y 841
param **.Fleet[42].Phy.x 266
param **.Fleet[42].Phy.y 193
param **.Fleet[43].Phy.x 701
param **.Fleet[43].Phy.y 885
param **.Fleet[44].Phy.x 125
param **.Fleet[44].Phy.y 585
param **.Fleet[45].Phy.x 891
param **.Fleet[45].Phy.y 388
param **.Fleet[46].Phy.x 100
param **.Fleet[46].Phy.y 809
param **.Fleet[47].Phy.x 465
param **.Fleet[47].Phy.y 808
param **.Fleet[48].Phy.x 341
param **.Fleet[48].Phy.y 657
param **.Fleet[49].Phy.x 317
param **.Fleet[49].Phy.y 174
param **.Fleet[4].Phy.x 327
param **.Fleet[4].Phy.y 531
param **.Fleet[50].Phy.x 144
param **.Fleet[50].Phy.y 696
param **.Fleet[51].Phy.x 675
param **.Fleet[51].Phy.y 421
param **.Fleet[52].Phy.x 27
param **.Fleet[52].Phy.y 264
param **.Fleet[53].Phy.x 812
param **.Fleet[53].Phy.y 943
param **.Fleet[54].Phy.x 838
param **.Fleet[54].Phy.y 478
param **.Fleet[55].Phy.x 796
param **.Fleet[55].Phy.y 390
param **.Fleet[56].Phy.x 810
param **.Fleet[56].Phy.y 967
param **.Fleet[57].Phy.x 847
param **.Fleet[57].Phy.y 123
param **.Fleet[58].Phy.x 305
param **.Fleet[58].Phy.y 613
param **.Fleet[59].Phy.x 680
param **.Fleet[59].Phy.y 282
param **.Fleet[5].Phy.x 51
param **.Fleet[5].Phy.y 431
param **.Fleet[60].Phy.x 887
param **.Fleet[60].Phy.y 328
param **.Fleet[61].Phy.x 856
param **.Fleet[61].Phy.y 122
param **.Fleet[62].Phy.x 229
param **.Fleet[62].Phy.y 784
param **.Fleet[63].Phy.x 291
param **.Fleet[63].Phy.y 258
param **.Fleet[64].Phy.x 269
param **.Fleet[64].Phy.y 233
param **.Fleet[65].Phy.x 235
param **.Fleet[65].Phy.y 960
param **.Fleet[66].Phy.x 122
param **.Fleet[66].Phy.y 210
param **.Fleet[67].Phy.x 743
param **.Fleet[67].Phy.y 832
param **.Fleet[68].Phy.x 219
param **.Fleet[68].Phy.y 568
param **.Fleet[69].Phy.x 654
param **.Fleet[69].Phy.y 321
param **.Fleet[6].Phy.x 865
param **.Fleet[6].Phy.y 560
param **.Fleet[70].Phy.x 371
param **.Fleet[70].Phy.y 704
param **.Fleet[71].Phy.x 428
param **.Fleet[71].Phy.y 210
param **.Fleet[72].Phy.x 773
param **.Fleet[72].Phy.y 572
param **.Fleet[73].Phy.x 361
param **.Fleet[73].Phy.y 433
param **.Fleet[74].Phy.x 818
param **.Fleet[74].Phy.y 859
param **.Fleet[75].Phy.x 625
param **.Fleet[75].Phy.y 223
param **.Fleet[76].Phy.x 598
param **.Fleet[76].Phy.y 949
param **.Fleet[77].Phy.x 646
param **.Fleet[77].Phy.y 340
param **.Fleet[78].Phy.x 732
param **.Fleet[78].Phy.y 204
param **.Fleet[79].Phy.x 307
param **.Fleet[79].Phy.y 310
param **.Fleet[7].Phy.x 262
param **.Fleet[7].Phy.y 361
param **.Fleet[80].Phy.x 475
param **.Fleet[80].Phy.y 105
param **.Fleet[81].Phy.x 902
param **.Fleet[81].Phy.y 177
param **.Fleet[82].Phy.x 21
param **.Fleet[82].Phy.y 730
param **.Fleet[83].Phy.x 131
param **.Fleet[83].Phy.y 261
param **.Fleet[84].Phy.x 868
param **.Fleet[84].Phy.y 268
param **.Fleet[85].Phy.x 391
param **.Fleet[85].Phy.y 901
param **.Fleet[86].Phy.x 74
param **.Fleet[86].Phy.y 225
param **.Fleet[87].Phy.x 318
param **.Fleet[87].Phy.y 429
param **.Fleet[88].Phy.x 573
param **.Fleet[88].Phy.y 911
param **.Fleet[89].Phy.x 727
param **.Fleet[89].Phy.y 745
param **.Fleet[8].Phy.x 52
param **.Fleet[8].Phy.y 724
param **.Fleet[90].Phy.x 688
param **.Fleet[90].Phy.y 514
param **.Fleet[91].Phy.x 686
param **.Fleet[91].Phy.y 278
param **.Fleet[92].Phy.x 379
param **.Fleet[92].Phy.y 22
param **.Fleet[93].Phy.x 698
param **.Fleet[93].Phy.y 311
param **.Fleet[94].Phy.x 213
param **.Fleet[94].Phy.y 518
param **.Fleet[95].Phy.x 513
param **.Fleet[95].Phy.y 788
param **.Fleet[96].Phy.x 753
param **.Fleet[96].Phy.y 731
param **.Fleet[97].Phy.x 532
param **.Fleet[97].Phy.y 561
param **.Fleet[98].Phy.x 369
param **.Fleet[98].Phy.y 438
param **.Fleet[99].Phy.x 893
param **.Fleet[99].Phy.y 89
param **.Fleet[9].Phy.x 393
param **.Fleet[9].Phy.y 999
param **.Gas[0].Phy.x 95
param **.Gas[0].Phy.y 407
param **.Gas[10].Phy.x 710
param **.Gas[10].Phy.y 503
param **.Gas[11].Phy.x 877
param **.Gas[11].Phy.y 178
param **.Gas[12].Phy.x 985
param **.Gas[12].Phy.y 77
param **.Gas[13].Phy.x 201
param **.Gas[13].Phy.y 94
param **.Gas[14].Phy.x 380
param **.Gas[14].Phy.y 709
param **.Gas[15].Phy.x 815
param **.Gas[15].Phy.y 89
param **.Gas[16].Phy.x 467
param **.Gas[16].Phy.y 869
param **.Gas[17].Phy.x 965
param **.Gas[17].Phy.y 170
param **.Gas[18].Phy.x 433
param **.Gas[18].Phy.y 583
param **.Gas[19].Phy.x 790
param **.Gas[19].Phy.y 856
param **.Gas[1].Phy.x 677
param **.Gas[1].Phy.y 832
param **.Gas[20].Phy.x 532
param **.Gas[20].Phy.y 801
param **.Gas[21].Phy.x 654
param **.Gas[21].Phy.y 663
param **.Gas[22].Phy.x 676
param **.Gas[22].Phy.y 879
param **.Gas[23].Phy.x 344
param **.Gas[23].Phy.y 121
param **.Gas[24].Phy.x 857
param **.Gas[24].Phy.y 725
param **.Gas[25].Phy.x 176
param **.Gas[25].Phy.y 174
param **.Gas[26].Phy.x 798
param **.Gas[26].Phy.y 645
param **.Gas[27].Phy.x 286
param **.Gas[27].Phy.y 70
param **.Gas[28].Phy.x 842
param **.Gas[28].Phy.y 121
param **.Gas[29].Phy.x 332
param **.Gas[29].Phy.y 800
param **.Gas[2].Phy.x 665
param **.Gas[2].Phy.y 99
param **.Gas[30].Phy.x 702
param **.Gas[30].Phy.y 586
param **.Gas[31].Phy.x 902
param **.Gas[31].Phy.y 348
param **.Gas[32].Phy.x 909
param **.Gas[32].Phy.y 542
param **.Gas[33].Phy.x 728
param **.Gas[33].Phy.y 10
param **.Gas[34].Phy.x 370
param **.Gas[34].Phy.y 684
param **.Gas[35].Phy.x 123
param **.Gas[35].Phy.y 539
param **.Gas[36].Phy.x 880
param **.Gas[36].Phy.y 414
param **.Gas[37].Phy.x 91
param **.Gas[37].Phy.y 135
param **.Gas[38].Phy.x 738
param **.Gas[38].Phy.y 638
param **.Gas[39].Phy.x 59
param **.Gas[39].Phy.y 853
param **.Gas[3].Phy.x 321
param **.Gas[3].Phy.y 826
param **.Gas[40].Phy.x 507
param **.Gas[40].Phy.y 382
param **.Gas[41].Phy.x 886
param **.Gas[41].Phy.y 757
param **.Gas[42].Phy.x 435
param **.Gas[42].Phy.y 696
param **.Gas[43].Phy.x 719
param **.Gas[43].Phy.y 341
param **.Gas[44].Phy.x 479
param **.Gas[44].Phy.y 180
param **.Gas[45].Phy.x 415
param **.Gas[45].Phy.y 386
param **.Gas[46].Phy.x 850
param **.Gas[46].Phy.y 444
param **.Gas[47].Phy.x 66
param **.Gas[47].Phy.y 388
param **.Gas[48].Phy.x 909
param **.Gas[48].Phy.y 488
param **.Gas[49].Phy.x 998
param **.Gas[49].Phy.y 15
param **.Gas[4].Phy.x 411
param **.Gas[4].Phy.y 710
param **.Gas[50].Phy.x 457
param **.Gas[50].Phy.y 670
param **.Gas[51].Phy.x 57
param **.Gas[51].Phy.y 253
param **.Gas[52].Phy.x 907
param **.Gas[52].Phy.y 866
param **.Gas[53].Phy.x 615
param **.Gas[53].Phy.y 36
param **.Gas[54].Phy.x 797
param **.Gas[54].Phy.y 663
param **.Gas[55].Phy.x 391
param **.Gas[55].Phy.y 308
param **.Gas[56].Phy.x 982
param **.Gas[56].Phy.y 835
param **.Gas[57].Phy.x 948
param **.Gas[57].Phy.y 725
param **.Gas[58].Phy.x 695
param **.Gas[58].Phy.y 687
param **.Gas[59].Phy.x 340
param **.Gas[59].Phy.y 519
param **.Gas[5].Phy.x 704
param **.Gas[5].Phy.y 221
param **.Gas[60].Phy.x 205
param **.Gas[60].Phy.y 286
param **.Gas[61].Phy.x 591
param **.Gas[61].Phy.y 848
param **.Gas[62].Phy.x 14
param **.Gas[62].Phy.y 932
param **.Gas[63].Phy.x 718
param **.Gas[63].Phy.y 120
param **.Gas[64].Phy.x 875
param **.Gas[64].Phy.y 194
param **.Gas[65].Phy.x 547
param **.Gas[65].Phy.y 344
param **.Gas[66].Phy.x 523
param **.Gas[66].Phy.y 608
param **.Gas[67].Phy.x 916
param **.Gas[67].Phy.y 333
param **.Gas[68].Phy.x 390
param **.Gas[68].Phy.y 355
param **.Gas[69].Phy.x 889
param **.Gas[69].Phy.y 976
param **.Gas[6].Phy.x 452
param **.Gas[6].Phy.y 4
param **.Gas[70].Phy.x 942
param **.Gas[70].Phy.y 585
param **.Gas[71].Phy.x 704
param **.Gas[71].Phy.y 825
param **.Gas[72].Phy.x 317
param **.Gas[72].Phy.y 779
param **.Gas[73].Phy.x 443
param **.Gas[73].Phy.y 94
param **.Gas[74].Phy.x 218
param **.Gas[74].Phy.y 122
param **.Gas[75].Phy.x 697
param **.Gas[75].Phy.y 359
param **.Gas[76].Phy.x 536
param **.Gas[76].Phy.y 366
param **.Gas[77].Phy.x 268
param **.Gas[77].Phy.y 935
param **.Gas[78].Phy.x 856
param **.Gas[78].Phy.y 991
param **.Gas[79].Phy.x 26
param **.Gas[79].Phy.y 160
param **.Gas[7].Phy.x 982
param **.Gas[7].Phy.y 319
param **.Gas[80].Phy.x 541
param **.Gas[80].Phy.y 827
param **.Gas[81].Phy.x 310
param **.Gas[81].Phy.y 11
param **.Gas[82].Phy.x 688
param **.Gas[82].Phy.y 280
param **.Gas[83].Phy.x 741
param **.Gas[83].Phy.y 955
param **.Gas[84].Phy.x 654
param **.Gas[84].Phy.y 23
param **.Gas[85].Phy.x 832
param **.Gas[85].Phy.y 51
param **.Gas[86].Phy.x 219
param **.Gas[86].Phy.y 380
param **.Gas[87].Phy.x 515
param **.Gas[87].Phy.y 799
param **.Gas[88].Phy.x 500
param **.Gas[88].Phy.y 464
param **.Gas[89].Phy.x 815
param **.Gas[89].Phy.y 285
param **.Gas[8].Phy.x 318
param **.Gas[8].Phy.y 961
param **.Gas[90].Phy.x 953
param **.Gas[90].Phy.y 480
param **.Gas[91].Phy.x 59
param **.Gas[91].Phy.y 894
param **.Gas[92].Phy.x 440
param **.Gas[92].Phy.y 505
param **.Gas[93].Phy.x 743
param **.Gas[93].Phy.y 115
param **.Gas[94].Phy.x 294
param **.Gas[94].Phy.y 74
param **.Gas[95].Phy.x 73
param **.Gas[95].Phy.y 829
param **.Gas[96].Phy.x 721
param **.Gas[96].Phy.y 103
param **.Gas[97].Phy.x 142
param **.Gas[97].Phy.y 464
param **.Gas[98].Phy.x 433
param **.Gas[98].Phy.y 279
param **.Gas[99].Phy.x 728
param **.Gas[99].Phy.y 612
param **.Gas[9].Phy.x 538
param **.Gas[9].Phy.y 583
param **.Park[0].Phy.x 411
param **.Park[0].Phy.y 875
param **.Park[100].Phy.x 232
param **.Park[100].Phy.y 59
param **.Park[101].Phy.x 384
param **.Park[101].Phy.y 396
param **.Park[102].Phy.x 328
param **.Park[102].Phy.y 532
param **.Park[103].Phy.x 474
param **.Park[103].Phy.y 953
param **.Park[104].Phy.x 173
param **.Park[104].Phy.y 952
param **.Park[105].Phy.x 686
param **.Park[105].Phy.y 746
param **.Park[106].Phy.x 973
param **.Park[106].Phy.y 610
param **.Park[107].Phy.x 548
param **.Park[107].Phy.y 877
param **.Park[108].Phy.x 247
param **.Park[108].Phy.y 370
param **.Park[109].Phy.x 513
param **.Park[109].Phy.y 10
param **.Park[10].Phy.x 22
param **.Park[10].Phy.y 988
param **.Park[110].Phy.x 368
param **.Park[110].Phy.y 109
param **.Park[111].Phy.x 136
param **.Park[111].Phy.y 624
param **.Park[112].Phy.x 550
param **.Park[112].Phy.y 604
param **.Park[113].Phy.x 428
param **.Park[113].Phy.y 109
param **.Park[114].Phy.x 780
param **.Park[114].Phy.y 480
param **.Park[115].Phy.x 996
param **.Park[115].Phy.y 970
param **.Park[116].Phy.x 800
param **.Park[116].Phy.y 3
param **.Park[117].Phy.x 843
param **.Park[117].Phy.y 564
param **.Park[118].Phy.x 684
param **.Park[118].Phy.y 303
param **.Park[119].Phy.x 519
param **.Park[119].Phy.y 473
param **.Park[11].Phy.x 78
param **.Park[11].Phy.y 496
param **.Park[120].Phy.x 665
param **.Park[120].Phy.y 767
param **.Park[121].Phy.x 509
param **.Park[121].Phy.y 271
param **.Park[122].Phy.x 117
param **.Park[122].Phy.y 745
param **.Park[123].Phy.x 281
param **.Park[123].Phy.y 720
param **.Park[124].Phy.x 154
param **.Park[124].Phy.y 957
param **.Park[125].Phy.x 640
param **.Park[125].Phy.y 417
param **.Park[126].Phy.x 296
param **.Park[126].Phy.y 267
param **.Park[127].Phy.x 973
param **.Park[127].Phy.y 87
param **.Park[128].Phy.x 138
param **.Park[128].Phy.y 404
param **.Park[129].Phy.x 332
param **.Park[129].Phy.y 160
param **.Park[12].Phy.x 60
param **.Park[12].Phy.y 62
param **.Park[130].Phy.x 23
param **.Park[130].Phy.y 150
param **.Park[131].Phy.x 761
param **.Park[131].Phy.y 158
param **.Park[132].Phy.x 305
param **.Park[132].Phy.y 610
param **.Park[133].Phy.x 147
param **.Park[133].Phy.y 776
param **.Park[134].Phy.x 998
param **.Park[134].Phy.y 749
param **.Park[135].Phy.x 482
param **.Park[135].Phy.y 955
param **.Park[136].Phy.x 579
param **.Park[136].Phy.y 536
param **.Park[137].Phy.x 45
param **.Park[137].Phy.y 450
param **.Park[138].Phy.x 952
param **.Park[138].Phy.y 867
param **.Park[139].Phy.x 35
param **.Park[139].Phy.y 165
param **.Park[13].Phy.x 840
param **.Park[13].Phy.y 98
param **.Park[140].Phy.x 511
param **.Park[140].Phy.y 516
param **.Park[141].Phy.x 140
param **.Park[141].Phy.y 707
param **.Park[142].Phy.x 950
param **.Park[142].Phy.y 334
param **.Park[143].Phy.x 792
param **.Park[143].Phy.y 491
param **.Park[144].Phy.x 531
param **.Park[144].Phy.y 38
param **.Park[145].Phy.x 842
param **.Park[145].Phy.y 157
param **.Park[146].Phy.x 468
param **.Park[146].Phy.y 616
param **.Park[147].Phy.x 860
param **.Park[147].Phy.y 438
param **.Park[148].Phy.x 434
param **.Park[148].Phy.y 375
param **.Park[149].Phy.x 536
param **.Park[149].Phy.y 62
param **.Park[14].Phy.x 799
param **.Park[14].Phy.y 127
param **.Park[150].Phy.x 590
param **.Park[150].Phy.y 280
param **.Park[151].Phy.x 759
param **.Park[151].Phy.y 946
param **.Park[152].Phy.x 804
param **.Park[152].Phy.y 246
param **.Park[153].Phy.x 612
param **.Park[153].Phy.y 946
param **.Park[154].Phy.x 962
param **.Park[154].Phy.y 413
param **.Park[155].Phy.x 658
param **.Park[155].Phy.y 501
param **.Park[156].Phy.x 680
param **.Park[156].Phy.y 366
param **.Park[157].Phy.x 473
param **.Park[157].Phy.y 447
param **.Park[158].Phy.x 722
param **.Park[158].Phy.y 107
param **.Park[159].Phy.x 277
param **.Park[159].Phy.y 334
param **.Park[15].Phy.x 405
param **.Park[15].Phy.y 305
param **.Park[160].Phy.x 95
param **.Park[160].Phy.y 360
param **.Park[161].Phy.x 206
param **.Park[161].Phy.y 55
param **.Park[162].Phy.x 682
param **.Park[162].Phy.y 414
param **.Park[163].Phy.x 406
param **.Park[163].Phy.y 695
param **.Park[164].Phy.x 742
param **.Park[164].Phy.y 999
param **.Park[165].Phy.x 844
param **.Park[165].Phy.y 124
param **.Park[166].Phy.x 615
param **.Park[166].Phy.y 264
param **.Park[167].Phy.x 54
param **.Park[167].Phy.y 723
param **.Park[168].Phy.x 555
param **.Park[168].Phy.y 832
param **.Park[169].Phy.x 157
param **.Park[169].Phy.y 892
param **.Park[16].Phy.x 537
param **.Park[16].Phy.y 943
param **.Park[170].Phy.x 253
param **.Park[170].Phy.y 186
param **.Park[171].Phy.x 334
param **.Park[171].Phy.y 73
param **.Park[172].Phy.x 304
param **.Park[172].Phy.y 958
param **.Park[173].Phy.x 336
param **.Park[173].Phy.y 78
param **.Park[174].Phy.x 99
param **.Park[174].Phy.y 569
param **.Park[175].Phy.x 786
param **.Park[175].Phy.y 463
param **.Park[176].Phy.x 792
param **.Park[176].Phy.y 987
param **.Park[177].Phy.x 774
param **.Park[177].Phy.y 934
param **.Park[178].Phy.x 297
param **.Park[178].Phy.y 640
param **.Park[179].Phy.x 432
param **.Park[179].Phy.y 22
param **.Park[17].Phy.x 943
param **.Park[17].Phy.y 236
param **.Park[180].Phy.x 737
param **.Park[180].Phy.y 406
param **.Park[181].Phy.x 153
param **.Park[181].Phy.y 928
param **.Park[182].Phy.x 946
param **.Park[182].Phy.y 337
param **.Park[183].Phy.x 887
param **.Park[183].Phy.y 353
param **.Park[184].Phy.x 300
param **.Park[184].Phy.y 447
param **.Park[185].Phy.x 538
param **.Park[185].Phy.y 168
param **.Park[186].Phy.x 436
param **.Park[186].Phy.y 929
param **.Park[187].Phy.x 602
param **.Park[187].Phy.y 262
param **.Park[188].Phy.x 748
param **.Park[188].Phy.y 834
param **.Park[189].Phy.x 786
param **.Park[189].Phy.y 860
param **.Park[18].Phy.x 441
param **.Park[18].Phy.y 288
param **.Park[190].Phy.x 419
param **.Park[190].Phy.y 293
param **.Park[191].Phy.x 375
param **.Park[191].Phy.y 577
param **.Park[192].Phy.x 473
param **.Park[192].Phy.y 93
param **.Park[193].Phy.x 979
param **.Park[193].Phy.y 138
param **.Park[194].Phy.x 553
param **.Park[194].Phy.y 315
param **.Park[195].Phy.x 460
param **.Park[195].Phy.y 485
param **.Park[196].Phy.x 656
param **.Park[196].Phy.y 118
param **.Park[197].Phy.x 685
param **.Park[197].Phy.y 932
param **.Park[198].Phy.x 39
param **.Park[198].Phy.y 730
param **.Park[199].Phy.x 502
param **.Park[199].Phy.y 716
param **.Park[19].Phy.x 746
param **.Park[19].Phy.y 37
param **.Park[1].Phy.x 699
param **.Park[1].Phy.y 288
param **.Park[200].Phy.x 462
param **.Park[200].Phy.y 981
param **.Park[201].Phy.x 823
param **.Park[201].Phy.y 895
param **.Park[202].Phy.x 274
param **.Park[202].Phy.y 837
param **.Park[203].Phy.x 562
param **.Park[203].Phy.y 57
param **.Park[204].Phy.x 753
param **.Park[204].Phy.y 219
param **.Park[205].Phy.x 484
param **.Park[205].Phy.y 784
param **.Park[206].Phy.x 330
param **.Park[206].Phy.y 807
param **.Park[207].Phy.x 977
param **.Park[207].Phy.y 263
param **.Park[208].Phy.x 448
param **.Park[208].Phy.y 314
param **.Park[209].Phy.x 681
param **.Park[209].Phy.y 991
param **.Park[20].Phy.x 553
param **.Park[20].Phy.y 62
param **.Park[210].Phy.x 643
param **.Park[210].Phy.y 761
param **.Park[211].Phy.x 816
param **.Park[211].Phy.y 591
param **.Park[212].Phy.x 203
param **.Park[212].Phy.y 378
param **.Park[213].Phy.x 392
param **.Park[213].Phy.y 609
param **.Park[214].Phy.x 287
param **.Park[214].Phy.y 758
param **.Park[215].Phy.x 15
param **.Park[215].Phy.y 563
param **.Park[216].Phy.x 167
param **.Park[216].Phy.y 684
param **.Park[217].Phy.x 895
param **.Park[217].Phy.y 47
param **.Park[218].Phy.x 691
param **.Park[218].Phy.y 606
param **.Park[219].Phy.x 393
param **.Park[219].Phy.y 324
param **.Park[21].Phy.x 817
param **.Park[21].Phy.y 70
param **.Park[220].Phy.x 103
param **.Park[220].Phy.y 109
param **.Park[221].Phy.x 724
param **.Park[221].Phy.y 12
param **.Park[222].Phy.x 738
param **.Park[222].Phy.y 307
param **.Park[223].Phy.x 509
param **.Park[223].Phy.y 937
param **.Park[224].Phy.x 917
param **.Park[224].Phy.y 315
param **.Park[225].Phy.x 527
param **.Park[225].Phy.y 161
param **.Park[226].Phy.x 450
param **.Park[226].Phy.y 488
param **.Park[227].Phy.x 774
param **.Park[227].Phy.y 641
param **.Park[228].Phy.x 643
param **.Park[228].Phy.y 60
param **.Park[229].Phy.x 183
param **.Park[229].Phy.y 802
param **.Park[22].Phy.x 805
param **.Park[22].Phy.y 267
param **.Park[230].Phy.x 443
param **.Park[230].Phy.y 579
param **.Park[231].Phy.x 530
param **.Park[231].Phy.y 849
param **.Park[232].Phy.x 720
param **.Park[232].Phy.y 609
param **.Park[233].Phy.x 779
param **.Park[233].Phy.y 828
param **.Park[234].Phy.x 421
param **.Park[234].Phy.y 776
param **.Park[235].Phy.x 409
param **.Park[235].Phy.y 213
param **.Park[236].Phy.x 154
param **.Park[236].Phy.y 907
param **.Park[237].Phy.x 615
param **.Park[237].Phy.y 393
param **.Park[238].Phy.x 76
param **.Park[238].Phy.y 732
param **.Park[239].Phy.x 147
param **.Park[239].Phy.y 732
param **.Park[23].Phy.x 285
param **.Park[23].Phy.y 682
param **.Park[240].Phy.x 713
param **.Park[240].Phy.y 187
param **.Park[241].Phy.x 592
param **.Park[241].Phy.y 457
param **.Park[242].Phy.x 881
param **.Park[242].Phy.y 667
param **.Park[243].Phy.x 30
param **.Park[243].Phy.y 372
param **.Park[244].Phy.x 162
param **.Park[244].Phy.y 636
param **.Park[245].Phy.x 272
param **.Park[245].Phy.y 610
param **.Park[246].Phy.x 807
param **.Park[246].Phy.y 785
param **.Park[247].Phy.x 696
param **.Park[247].Phy.y 935
param **.Park[248].Phy.x 40
param **.Park[248].Phy.y 101
param **.Park[249].Phy.x 991
param **.Park[249].Phy.y 439
param **.Park[24].Phy.x 10
param **.Park[24].Phy.y 386
param **.Park[25].Phy.x 380
param **.Park[25].Phy.y 349
param **.Park[26].Phy.x 446
param **.Park[26].Phy.y 966
param **.Park[27].Phy.x 530
param **.Park[27].Phy.y 271
param **.Park[28].Phy.x 590
param **.Park[28].Phy.y 151
param **.Park[29].Phy.x 615
param **.Park[29].Phy.y 118
param **.Park[2].Phy.x 604
param **.Park[2].Phy.y 55
param **.Park[30].Phy.x 981
param **.Park[30].Phy.y 195
param **.Park[31].Phy.x 66
param **.Park[31].Phy.y 368
param **.Park[32].Phy.x 150
param **.Park[32].Phy.y 345
param **.Park[33].Phy.x 370
param **.Park[33].Phy.y 428
param **.Park[34].Phy.x 980
param **.Park[34].Phy.y 177
param **.Park[35].Phy.x 385
param **.Park[35].Phy.y 856
param **.Park[36].Phy.x 649
param **.Park[36].Phy.y 224
param **.Park[37].Phy.x 58
param **.Park[37].Phy.y 118
param **.Park[38].Phy.x 102
param **.Park[38].Phy.y 719
param **.Park[39].Phy.x 527
param **.Park[39].Phy.y 801
param **.Park[3].Phy.x 381
param **.Park[3].Phy.y 618
param **.Park[40].Phy.x 472
param **.Park[40].Phy.y 133
param **.Park[41].Phy.x 412
param **.Park[41].Phy.y 853
param **.Park[42].Phy.x 586
param **.Park[42].Phy.y 599
param **.Park[43].Phy.x 277
param **.Park[43].Phy.y 618
param **.Park[44].Phy.x 252
param **.Park[44].Phy.y 912
param **.Park[45].Phy.x 459
param **.Park[45].Phy.y 288
param **.Park[46].Phy.x 806
param **.Park[46].Phy.y 112
param **.Park[47].Phy.x 721
param **.Park[47].Phy.y 726
param **.Park[48].Phy.x 217
param **.Park[48].Phy.y 707
param **.Park[49].Phy.x 335
param **.Park[49].Phy.y 258
param **.Park[4].Phy.x 213
param **.Park[4].Phy.y 909
param **.Park[50].Phy.x 42
param **.Park[50].Phy.y 716
param **.Park[51].Phy.x 776
param **.Park[51].Phy.y 131
param **.Park[52].Phy.x 233
param **.Park[52].Phy.y 817
param **.Park[53].Phy.x 318
param **.Park[53].Phy.y 229
param **.Park[54].Phy.x 660
param **.Park[54].Phy.y 556
param **.Park[55].Phy.x 950
param **.Park[55].Phy.y 606
param **.Park[56].Phy.x 368
param **.Park[56].Phy.y 114
param **.Park[57].Phy.x 524
param **.Park[57].Phy.y 956
param **.Park[58].Phy.x 591
param **.Park[58].Phy.y 481
param **.Park[59].Phy.x 307
param **.Park[59].Phy.y 184
param **.Park[5].Phy.x 192
param **.Park[5].Phy.y 359
param **.Park[60].Phy.x 197
param **.Park[60].Phy.y 827
param **.Park[61].Phy.x 722
param **.Park[61].Phy.y 145
param **.Park[62].Phy.x 175
param **.Park[62].Phy.y 564
param **.Park[63].Phy.x 967
param **.Park[63].Phy.y 1000
param **.Park[64].Phy.x 833
param **.Park[64].Phy.y 230
param **.Park[65].Phy.x 867
param **.Park[65].Phy.y 265
param **.Park[66].Phy.x 49
param **.Park[66].Phy.y 263
param **.Park[67].Phy.x 161
param **.Park[67].Phy.y 571
param **.Park[68].Phy.x 617
param **.Park[68].Phy.y 810
param **.Park[69].Phy.x 35
param **.Park[69].Phy.y 777
param **.Park[6].Phy.x 175
param **.Park[6].Phy.y 761
param **.Park[70].Phy.x 711
param **.Park[70].Phy.y 982
param **.Park[71].Phy.x 740
param **.Park[71].Phy.y 127
param **.Park[72].Phy.x 467
param **.Park[72].Phy.y 783
param **.Park[73].Phy.x 396
param **.Park[73].Phy.y 216
param **.Park[74].Phy.x 947
param **.Park[74].Phy.y 465
param **.Park[75].Phy.x 798
param **.Park[75].Phy.y 571
param **.Park[76].Phy.x 245
param **.Park[76].Phy.y 22
param **.Park[77].Phy.x 276
param **.Park[77].Phy.y 988
param **.Park[78].Phy.x 137
param **.Park[78].Phy.y 693
param **.Park[79].Phy.x 2
param **.Park[79].Phy.y 153
param **.Park[7].Phy.x 846
param **.Park[7].Phy.y 241
param **.Park[80].Phy.x 729
param **.Park[80].Phy.y 392
param **.Park[81].Phy.x 896
param **.Park[81].Phy.y 413
param **.Park[82].Phy.x 675
param **.Park[82].Phy.y 281
param **.Park[83].Phy.x 149
param **.Park[83].Phy.y 288
param **.Park[84].Phy.x 860
param **.Park[84].Phy.y 801
param **.Park[85].Phy.x 732
param **.Park[85].Phy.y 291
param **.Park[86].Phy.x 884
param **.Park[86].Phy.y 741
param **.Park[87].Phy.x 114
param **.Park[87].Phy.y 469
param **.Park[88].Phy.x 629
param **.Park[88].Phy.y 280
param **.Park[89].Phy.x 757
param **.Park[89].Phy.y 428
param **.Park[8].Phy.x 881
param **.Park[8].Phy.y 940
param **.Park[90].Phy.x 868
param **.Park[90].Phy.y 767
param **.Park[91].Phy.x 421
param **.Park[91].Phy.y 935
param **.Park[92].Phy.x 4
param **.Park[92].Phy.y 183
param **.Park[93].Phy.x 805
param **.Park[93].Phy.y 702
param **.Park[94].Phy.x 472
param **.Park[94].Phy.y 387
param **.Park[95].Phy.x 649
param **.Park[95].Phy.y 791
param **.Park[96].Phy.x 325
param **.Park[96].Phy.y 378
param **.Park[97].Phy.x 510
param **.Park[97].Phy.y 576
param **.Park[98].Phy.x 656
param **.Park[98].Phy.y 700
param **.Park[99].Phy.x 906
param **.Park[99].Phy.y 130
param **.Park[9].Phy.x 755
param **.Park[9].Phy.y 37
param **.UE[0].Phy.x 95
param **.UE[0].Phy.y 407
param **.UE[10].Phy.x 710
param **.UE[10].Phy.y 503
param **.UE[11].Phy.x 877
param **.UE[11].Phy.y 178
param **.UE[12].Phy.x 985
param **.UE[12].Phy.y 77
param **.UE[13].Phy.x 201
param **.UE[13].Phy.y 94
param **.UE[14].Phy.x 380
param **.UE[14].Phy.y 709
param **.UE[15].Phy.x 815
param **.UE[15].Phy.y 89
param **.UE[16].Phy.x 467
param **.UE[16].Phy.y 869
param **.UE[17].Phy.x 965
param **.UE[17].Phy.y 170
param **.UE[18].Phy.x 433
param **.UE[18].Phy.y 583
param **.UE[19].Phy.x 790
param **.UE[19].Phy.y 856
param **.UE[1].Phy.x 677
param **.UE[1].Phy.y 832
param **.UE[20].Phy.x 532
param **.UE[20].Phy.y 801
param **.UE[21].Phy.x 654
param **.UE[21].Phy.y 663
param **.UE[22].Phy.x 676
param **.UE[22].Phy.y 879
param **.UE[23].Phy.x 344
param **.UE[23].Phy.y 121
param **.UE[24].Phy.x 857
param **.UE[24].Phy.y 725
param **.UE[25].Phy.x 176
param **.UE[25].Phy.y 174
param **.UE[26].Phy.x 798
param **.UE[26].Phy.y 645
param **.UE[27].Phy.x 286
param **.UE[27].Phy.y 70
param **.UE[28].Phy.x 842
param **.UE[28].Phy.y 121
param **.UE[29].Phy.x 332
param **.UE[29].Phy.y 800
param **.UE[2].Phy.x 665
param **.UE[2].Phy.y 99
param **.UE[30].Phy.x 702
param **.UE[30].Phy.y 586
param **.UE[31].Phy.x 902
param **.UE[31].Phy.y 348
param **.UE[32].Phy.x 909
param **.UE[32].Phy.y 542
param **.UE[33].Phy.x 728
param **.UE[33].Phy.y 10
param **.UE[34].Phy.x 370
param **.UE[34].Phy.y 684
param **.UE[35].Phy.x 123
param **.UE[35].Phy.y 539
param **.UE[36].Phy.x 880
param **.UE[36].Phy.y 414
param **.UE[37].Phy.x 91
param **.UE[37].Phy.y 135
param **.UE[38].Phy.x 738
param **.UE[38].Phy.y 638
param **.UE[39].Phy.x 59
param **.UE[39].Phy.y 853
param **.UE[3].Phy.x 321
param **.UE[3].Phy.y 826
param **.UE[40].Phy.x 507
param **.UE[40].Phy.y 382
param **.UE[41].Phy.x 886
param **.UE[41].Phy.y 757
param **.UE[42].Phy.x 435
param **.UE[42].Phy.y 696
param **.UE[43].Phy.x 719
param **.UE[43].Phy.y 341
param **.UE[44].Phy.x 479
param **.UE[44].Phy.y 180
param **.UE[45].Phy.x 415
param **.UE[45].Phy.y 386
param **.UE[46].Phy.x 850
param **.UE[46].Phy.y 444
param **.UE[47].Phy.x 66
param **.UE[47].Phy.y 388
param **.UE[48].Phy.x 909
param **.UE[48].Phy.y 488
param **.UE[49].Phy.x 998
param **.UE[49].Phy.y 15
param **.UE[4].Phy.x 411
param **.UE[4].Phy.y 710
param **.UE[50].Phy.x 457
param **.UE[50].Phy.y 670
param **.UE[51].Phy.x 57
param **.UE[51].Phy.y 253
param **.UE[52].Phy.x 907
param **.UE[52].Phy.y 866
param **.UE[53].Phy.x 615
param **.UE[53].Phy.y 36
param **.UE[54].Phy.x 797
param **.UE[54].Phy.y 663
param **.UE[55].Phy.x 391
param **.UE[55].Phy.y 308
param **.UE[56].Phy.x 982
param **.UE[56].Phy.y 835
param **.UE[57].Phy.x 948
param **.UE[57].Phy.y 725
param **.UE[58].Phy.x 695
param **.UE[58].Phy.y 687
param **.UE[59].Phy.x 340
param **.UE[59].Phy.y 519
param **.UE[5].Phy.x 704
param **.UE[5].Phy.y 221
param **.UE[60].Phy.x 205
param **.UE[60].Phy.y 286
param **.UE[61].Phy.x 591
param **.UE[61].Phy.y 848
param **.UE[62].Phy.x 14
param **.UE[62].Phy.y 932
param **.UE[63].Phy.x 718
param **.UE[63].Phy.y 120
param **.UE[64].Phy.x 875
param **.UE[64].Phy.y 194
param **.UE[65].Phy.x 547
param **.UE[65].Phy.y 344
param **.UE[66].Phy.x 523
param **.UE[66].Phy.y 608
param **.UE[67].Phy.x 916
param **.UE[67].Phy.y 333
param **.UE[68].Phy.x 390
param **.UE[68].Phy.y 355
param **.UE[69].Phy.x 889
param **.UE[69].Phy.y 976
param **.UE[6].Phy.x 452
param **.UE[6].Phy.y 4
param **.UE[70].Phy.x 942
param **.UE[70].Phy.y 585
param **.UE[71].Phy.x 704
param **.UE[71].Phy.y 825
param **.UE[72].Phy.x 317
param **.UE[72].Phy.y 779
param **.UE[73].Phy.x 443
param **.UE[73].Phy.y 94
param **.UE[74].Phy.x 218
param **.UE[74].Phy.y 122
param **.UE[75].Phy.x 697
param **.UE[75].Phy.y 359
param **.UE[76].Phy.x 536
param **.UE[76].Phy.y 366
param **.UE[77].Phy.x 268
param **.UE[77].Phy.y 935
param **.UE[78].Phy.x 856
param **.UE[78].Phy.y 991
param **.UE[79].Phy.x 26
param **.UE[79].Phy.y 160
param **.UE[7].Phy.x 982
param **.UE[7].Phy.y 319
param **.UE[80].Phy.x 541
param **.UE[80].Phy.y 827
param **.UE[81].Phy.x 310
param **.UE[81].Phy.y 11
param **.UE[82].Phy.x 688
param **.UE[82].Phy.y 280
param **.UE[83].Phy.x 741
param **.UE[83].Phy.y 955
param **.UE[84].Phy.x 654
param **.UE[84].Phy.y 23
param **.UE[85].Phy.x 832
param **.UE[85].Phy.y 51
param **.UE[86].Phy.x 219
param **.UE[86].Phy.y 380
param **.UE[87].Phy.x 515
param **.UE[87].Phy.y 799
param **.UE[88].Phy.x 500
param **.UE[88].Phy.y 464
param **.UE[89].Phy.x 815
param **.UE[89].Phy.y 285
param **.UE[8].Phy.x 318
param **.UE[8].Phy.y 961
param **.UE[90].Phy.x 953
param **.UE[90].Phy.y 480
param **.UE[91].Phy.x 59
param **.UE[91].Phy.y 894
param **.UE[92].Phy.x 440
param **.UE[92].Phy.y 505
param **.UE[93].Phy.x 743
param **.UE[93].Phy.y 115
param **.UE[94].Phy.x 294
param **.UE[94].Phy.y 74
param **.UE[95].Phy.x 73
param **.UE[95].Phy.y 829
param **.UE[96].Phy.x 721
param **.UE[96].Phy.y 103
param **.UE[97].Phy.x 142
param **.UE[97].Phy.y 464
param **.UE[98].Phy.x 433
param **.UE[98].Phy.y 279
param **.UE[99].Phy.x 728
param **.UE[99].Phy.y 612
param **.UE[9].Phy.x 538
param **.UE[9].Phy.y 583
param **.Vending[0].Phy.x 394
param **.Vending[0].Phy.y 687
param **.Vending[100].Phy.x 386
param **.Vending[100].Phy.y 619
param **.Vending[101].Phy.x 499
param **.Vending[101].Phy.y 696
param **.Vending[102].Phy.x 18
param **.Vending[102].Phy.y 272
param **.Vending[103].Phy.x 193
param **.Vending[103].Phy.y 573
param **.Vending[104].Phy.x 736
param **.Vending[104].Phy.y 61
param **.Vending[105].Phy.x 236
param **.Vending[105].Phy.y 388
param **.Vending[106].Phy.x 318
param **.Vending[106].Phy.y 726
param **.Vending[107].Phy.x 737
param **.Vending[107].Phy.y 267
param **.Vending[108].Phy.x 986
param **.Vending[108].Phy.y 504
param **.Vending[109].Phy.x 271
param **.Vending[109].Phy.y 740
param **.Vending[10].Phy.x 896
param **.Vending[10].Phy.y 766
param **.Vending[110].Phy.x 284
param **.Vending[110].Phy.y 950
param **.Vending[111].Phy.x 51
param **.Vending[111].Phy.y 494
param **.Vending[112].Phy.x 856
param **.Vending[112].Phy.y 230
param **.Vending[113].Phy.x 861
param **.Vending[113].Phy.y 38
param **.Vending[114].Phy.x 647
param **.Vending[114].Phy.y 22
param **.Vending[115].Phy.x 578
param **.Vending[115].Phy.y 269
param **.Vending[116].Phy.x 754
param **.Vending[116].Phy.y 44
param **.Vending[117].Phy.x 304
param **.Vending[117].Phy.y 340
param **.Vending[118].Phy.x 153
param **.Vending[118].Phy.y 991
param **.Vending[119].Phy.x 820
param **.Vending[119].Phy.y 409
param **.Vending[11].Phy.x 499
param **.Vending[11].Phy.y 398
param **.Vending[120].Phy.x 904
param **.Vending[120].Phy.y 270
param **.Vending[121].Phy.x 664
param **.Vending[121].Phy.y 110
param **.Vending[122].Phy.x 285
param **.Vending[122].Phy.y 796
param **.Vending[123].Phy.x 166
param **.Vending[123].Phy.y 710
param **.Vending[124].Phy.x 203
param **.Vending[124].Phy.y 120
param **.Vending[125].Phy.x 390
param **.Vending[125].Phy.y 14
param **.Vending[126].Phy.x 311
param **.Vending[126].Phy.y 958
param **.Vending[127].Phy.x 609
param **.Vending[127].Phy.y 533
param **.Vending[128].Phy.x 285
param **.Vending[128].Phy.y 219
param **.Vending[129].Phy.x 267
param **.Vending[129].Phy.y 698
param **.Vending[12].Phy.x 718
param **.Vending[12].Phy.y 610
param **.Vending[130].Phy.x 111
param **.Vending[130].Phy.y 665
param **.Vending[131].Phy.x 647
param **.Vending[131].Phy.y 645
param **.Vending[132].Phy.x 212
param **.Vending[132].Phy.y 937
param **.Vending[133].Phy.x 797
param **.Vending[133].Phy.y 951
param **.Vending[134].Phy.x 310
param **.Vending[134].Phy.y 827
param **.Vending[135].Phy.x 770
param **.Vending[135].Phy.y 890
param **.Vending[136].Phy.x 636
param **.Vending[136].Phy.y 801
param **.Vending[137].Phy.x 972
param **.Vending[137].Phy.y 656
param **.Vending[138].Phy.x 293
param **.Vending[138].Phy.y 556
param **.Vending[139].Phy.x 768
param **.Vending[139].Phy.y 961
param **.Vending[13].Phy.x 876
param **.Vending[13].Phy.y 367
param **.Vending[140].Phy.x 864
param **.Vending[140].Phy.y 487
param **.Vending[141].Phy.x 700
param **.Vending[141].Phy.y 336
param **.Vending[142].Phy.x 33
param **.Vending[142].Phy.y 346
param **.Vending[143].Phy.x 11
param **.Vending[143].Phy.y 459
param **.Vending[144].Phy.x 681
param **.Vending[144].Phy.y 293
param **.Vending[145].Phy.x 978
param **.Vending[145].Phy.y 383
param **.Vending[146].Phy.x 610
param **.Vending[146].Phy.y 566
param **.Vending[147].Phy.x 179
param **.Vending[147].Phy.y 563
param **.Vending[148].Phy.x 493
param **.Vending[148].Phy.y 186
param **.Vending[149].Phy.x 168
param **.Vending[149].Phy.y 626
param **.Vending[14].Phy.x 156
param **.Vending[14].Phy.y 85
param **.Vending[15].Phy.x 959
param **.Vending[15].Phy.y 617
param **.Vending[16].Phy.x 467
param **.Vending[16].Phy.y 771
param **.Vending[17].Phy.x 919
param **.Vending[17].Phy.y 820
param **.Vending[18].Phy.x 373
param **.Vending[18].Phy.y 317
param **.Vending[19].Phy.x 442
param **.Vending[19].Phy.y 198
param **.Vending[1].Phy.x 767
param **.Vending[1].Phy.y 111
param **.Vending[20].Phy.x 841
param **.Vending[20].Phy.y 657
param **.Vending[21].Phy.x 773
param **.Vending[21].Phy.y 597
param **.Vending[22].Phy.x 285
param **.Vending[22].Phy.y 376
param **.Vending[23].Phy.x 852
param **.Vending[23].Phy.y 317
param **.Vending[24].Phy.x 170
param **.Vending[24].Phy.y 440
param **.Vending[25].Phy.x 28
param **.Vending[25].Phy.y 719
param **.Vending[26].Phy.x 340
param **.Vending[26].Phy.y 523
param **.Vending[27].Phy.x 774
param **.Vending[27].Phy.y 314
param **.Vending[28].Phy.x 1
param **.Vending[28].Phy.y 315
param **.Vending[29].Phy.x 738
param **.Vending[29].Phy.y 570
param **.Vending[2].Phy.x 299
param **.Vending[2].Phy.y 968
param **.Vending[30].Phy.x 735
param **.Vending[30].Phy.y 244
param **.Vending[31].Phy.x 315
param **.Vending[31].Phy.y 278
param **.Vending[32].Phy.x 765
param **.Vending[32].Phy.y 976
param **.Vending[33].Phy.x 664
param **.Vending[33].Phy.y 246
param **.Vending[34].Phy.x 42
param **.Vending[34].Phy.y 32
param **.Vending[35].Phy.x 290
param **.Vending[35].Phy.y 445
param **.Vending[36].Phy.x 156
param **.Vending[36].Phy.y 935
param **.Vending[37].Phy.x 164
param **.Vending[37].Phy.y 11
param **.Vending[38].Phy.x 692
param **.Vending[38].Phy.y 365
param **.Vending[39].Phy.x 494
param **.Vending[39].Phy.y 316
param **.Vending[3].Phy.x 501
param **.Vending[3].Phy.y 392
param **.Vending[40].Phy.x 255
param **.Vending[40].Phy.y 329
param **.Vending[41].Phy.x 403
param **.Vending[41].Phy.y 733
param **.Vending[42].Phy.x 2
param **.Vending[42].Phy.y 104
param **.Vending[43].Phy.x 938
param **.Vending[43].Phy.y 832
param **.Vending[44].Phy.x 182
param **.Vending[44].Phy.y 903
param **.Vending[45].Phy.x 291
param **.Vending[45].Phy.y 316
param **.Vending[46].Phy.x 830
param **.Vending[46].Phy.y 761
param **.Vending[47].Phy.x 709
param **.Vending[47].Phy.y 737
param **.Vending[48].Phy.x 430
param **.Vending[48].Phy.y 500
param **.Vending[49].Phy.x 14
param **.Vending[49].Phy.y 154
param **.Vending[4].Phy.x 141
param **.Vending[4].Phy.y 645
param **.Vending[50].Phy.x 577
param **.Vending[50].Phy.y 384
param **.Vending[51].Phy.x 201
param **.Vending[51].Phy.y 345
param **.Vending[52].Phy.x 950
param **.Vending[52].Phy.y 152
param **.Vending[53].Phy.x 623
param **.Vending[53].Phy.y 813
param **.Vending[54].Phy.x 788
param **.Vending[54].Phy.y 412
param **.Vending[55].Phy.x 393
param **.Vending[55].Phy.y 476
param **.Vending[56].Phy.x 311
param **.Vending[56].Phy.y 720
param **.Vending[57].Phy.x 728
param **.Vending[57].Phy.y 392
param **.Vending[58].Phy.x 968
param **.Vending[58].Phy.y 672
param **.Vending[59].Phy.x 569
param **.Vending[59].Phy.y 760
param **.Vending[5].Phy.x 32
param **.Vending[5].Phy.y 411
param **.Vending[60].Phy.x 716
param **.Vending[60].Phy.y 568
param **.Vending[61].Phy.x 253
param **.Vending[61].Phy.y 139
param **.Vending[62].Phy.x 215
param **.Vending[62].Phy.y 836
param **.Vending[63].Phy.x 361
param **.Vending[63].Phy.y 920
param **.Vending[64].Phy.x 793
param **.Vending[64].Phy.y 177
param **.Vending[65].Phy.x 800
param **.Vending[65].Phy.y 20
param **.Vending[66].Phy.x 364
param **.Vending[66].Phy.y 493
param **.Vending[67].Phy.x 181
param **.Vending[67].Phy.y 119
param **.Vending[68].Phy.x 287
param **.Vending[68].Phy.y 887
param **.Vending[69].Phy.x 633
param **.Vending[69].Phy.y 317
param **.Vending[6].Phy.x 826
param **.Vending[6].Phy.y 70
param **.Vending[70].Phy.x 788
param **.Vending[70].Phy.y 729
param **.Vending[71].Phy.x 452
param **.Vending[71].Phy.y 146
param **.Vending[72].Phy.x 576
param **.Vending[72].Phy.y 715
param **.Vending[73].Phy.x 223
param **.Vending[73].Phy.y 350
param **.Vending[74].Phy.x 112
param **.Vending[74].Phy.y 558
param **.Vending[75].Phy.x 647
param **.Vending[75].Phy.y 132
param **.Vending[76].Phy.x 401
param **.Vending[76].Phy.y 327
param **.Vending[77].Phy.x 446
param **.Vending[77].Phy.y 338
param **.Vending[78].Phy.x 3
param **.Vending[78].Phy.y 449
param **.Vending[79].Phy.x 916
param **.Vending[79].Phy.y 789
param **.Vending[7].Phy.x 464
param **.Vending[7].Phy.y 171
param **.Vending[80].Phy.x 786
param **.Vending[80].Phy.y 709
param **.Vending[81].Phy.x 957
param **.Vending[81].Phy.y 35
param **.Vending[82].Phy.x 116
param **.Vending[82].Phy.y 404
param **.Vending[83].Phy.x 402
param **.Vending[83].Phy.y 693
param **.Vending[84].Phy.x 555
param **.Vending[84].Phy.y 460
param **.Vending[85].Phy.x 503
param **.Vending[85].Phy.y 571
param **.Vending[86].Phy.x 952
param **.Vending[86].Phy.y 522
param **.Vending[87].Phy.x 275
param **.Vending[87].Phy.y 590
param **.Vending[88].Phy.x 194
param **.Vending[88].Phy.y 689
param **.Vending[89].Phy.x 996
param **.Vending[89].Phy.y 547
param **.Vending[8].Phy.x 87
param **.Vending[8].Phy.y 305
param **.Vending[90].Phy.x 289
param **.Vending[90].Phy.y 720
param **.Vending[91].Phy.x 978
param **.Vending[91].Phy.y 73
param **.Vending[92].Phy.x 386
param **.Vending[92].Phy.y 544
param **.Vending[93].Phy.x 500
param **.Vending[93].Phy.y 866
param **.Vending[94].Phy.x 693
param **.Vending[94].Phy.y 831
param **.Vending[95].Phy.x 883
param **.Vending[95].Phy.y 970
param **.Vending[96].Phy.x 670
param **.Vending[96].Phy.y 437
param **.Vending[97].Phy.x 265
param **.Vending[97].Phy.y 763
param **.Vending[98].Phy.x 178
param **.Vending[98].Phy.y 617
param **.Vending[99].Phy.x 44
param **.Vending[99].Phy.y 564
param **.Vending[9].Phy.x 890
param **.Vending[9].Phy.y 30
param **.Water[0].Phy.x 95
param **.Water[0].Phy.y 407
param **.Water[10].Phy.x 710
param **.Water[10].Phy.y 503
param **.Water[11].Phy.x 877
param **.Water[11].Phy.y 178
param **.Water[12].Phy.x 985
param **.Water[12].Phy.y 77
param **.Water[13].Phy.x 201
param **.Water[13].Phy.y 94
param **.Water[14].Phy.x 380
param **.Water[14].Phy.y 709
param **.Water[15].Phy.x 815
param **.Water[15].Phy.y 89
param **.Water[16].Phy.x 467
param **.Water[16].Phy.y 869
param **.Water[17].Phy.x 965
param **.Water[17].Phy.y 170
param **.Water[18].Phy.x 433
param **.Water[18].Phy.y 583
param **.Water[19].Phy.x 790
param **.Water[19].Phy.y 856
param **.Water[1].Phy.x 677
param **.Water[1].Phy.y 832
param **.Water[20].Phy.x 532
param **.Water[20].Phy.y 801
param **.Water[21].Phy.x 654
param **.Water[21].Phy.y 663
param **.Water[22].Phy.x 676
param **.Water[22].Phy.y 879
param **.Water[23].Phy.x 344
param **.Water[23].Phy.y 121
param **.Water[24].Phy.x 857
param **.Water[24].Phy.y 725
param **.Water[25].Phy.x 176
param **.Water[25].Phy.y 174
param **.Water[26].Phy.x 798
param **.Water[26].Phy.y 645
param **.Water[27].Phy.x 286
param **.Water[27].Phy.y 70
param **.Water[28].Phy.x 842
param **.Water[28].Phy.y 121
param **.Water[29].Phy.x 332
param **.Water[29].Phy.y 800
param **.Water[2].Phy.x 665
param **.Water[2].Phy.y 99
param **.Water[30].Phy.x 702
param **.Water[30].Phy.y 586
param **.Water[31].Phy.x 902
param **.Water[31].Phy.y 348
param **.Water[32].Phy.x 909
param **.Water[32].Phy.y 542
param **.Water[33].Phy.x 728
param **.Water[33].Phy.y 10
param **.Water[34].Phy.x 370
param **.Water[34].Phy.y 684
param **.Water[35].Phy.x 123
param **.Water[35].Phy.y 539
param **.Water[36].Phy.x 880
param **.Water[36].Phy.y 414
param **.Water[37].Phy.x 91
param **.Water[37].Phy.y 135
param **.Water[38].Phy.x 738
param **.Water[38].Phy.y 638
param **.Water[39].Phy.x 59
param **.Water[39].Phy.y 853
param **.Water[3].Phy.x 321
param **.Water[3].Phy.y 826
param **.Water[40].Phy.x 507
param **.Water[40].Phy.y 382
param **.Water[41].Phy.x 886
param **.Water[41].Phy.y 757
param **.Water[42].Phy.x 435
param **.Water[42].Phy.y 696
param **.Water[43].Phy.x 719
param **.Water[43].Phy.y 341
param **.Water[44].Phy.x 479
param **.Water[44].Phy.y 180
param **.Water[45].Phy.x 415
param **.Water[45].Phy.y 386
param **.Water[46].Phy.x 850
param **.Water[46].Phy.y 444
param **.Water[47].Phy.x 66
param **.Water[47].Phy.y 388
param **.Water[48].Phy.x 909
param **.Water[48].Phy.y 488
param **.Water[49].Phy.x 998
param **.Water[49].Phy.y 15
param **.Water[4].Phy.x 411
param **.Water[4].Phy.y 710
param **.Water[50].Phy.x 457
param **.Water[50].Phy.y 670
param **.Water[51].Phy.x 57
param **.Water[51].Phy.y 253
param **.Water[52].Phy.x 907
param **.Water[52].Phy.y 866
param **.Water[53].Phy.x 615
param **.Water[53].Phy.y 36
param **.Water[54].Phy.x 797
param **.Water[54].Phy.y 663
param **.Water[55].Phy.x 391
param **.Water[55].Phy.y 308
param **.Water[56].Phy.x 982
param **.Water[56].Phy.y 835
param **.Water[57].Phy.x 948
param **.Water[57].Phy.y 725
param **.Water[58].Phy.x 695
param **.Water[58].Phy.y 687
param **.Water[59].Phy.x 340
param **.Water[59].Phy.y 519
param **.Water[5].Phy.x 704
param **.Water[5].Phy.y 221
param **.Water[60].Phy.x 205
param **.Water[60].Phy.y 286
param **.Water[61].Phy.x 591
param **.Water[61].Phy.y 848
param **.Water[62].Phy.x 14
param **.Water[62].Phy.y 932
param **.Water[63].Phy.x 718
param **.Water[63].Phy.y 120
param **.Water[64].Phy.x 875
param **.Water[64].Phy.y 194
param **.Water[65].Phy.x 547
param **.Water[65].Phy.y 344
param **.Water[66].Phy.x 523
param **.Water[66].Phy.y 608
param **.Water[67].Phy.x 916
param **.Water[67].Phy.y 333
param **.Water[68].Phy.x 390
param **.Water[68].Phy.y 355
param **.Water[69].Phy.x 889
param **.Water[69].Phy.y 976
param **.Water[6].Phy.x 452
param **.Water[6].Phy.y 4
param **.Water[70].Phy.x 942
param **.Water[70].Phy.y 585
param **.Water[71].Phy.x 704
param **.Water[71].Phy.y 825
param **.Water[72].Phy.x 317
param **.Water[72].Phy.y 779
param **.Water[73].Phy.x 443
param **.Water[73].Phy.y 94
param **.Water[74].Phy.x 218
param **.Water[74].Phy.y 122
param **.Water[75].Phy.x 697
param **.Water[75].Phy.y 359
param **.Water[76].Phy.x 536
param **.Water[76].Phy.y 366
param **.Water[77].Phy.x 268
param **.Water[77].Phy.y 935
param **.Water[78].Phy.x 856
param **.Water[78].Phy.y 991
param **.Water[79].Phy.x 26
param **.Water[79].Phy.y 160
param **.Water[7].Phy.x 982
param **.Water[7].Phy.y 319
param **.Water[80].Phy.x 541
param **.Water[80].Phy.y 827
param **.Water[81].Phy.x 310
param **.Water[81].Phy.y 11
param **.Water[82].Phy.x 688
param **.Water[82].Phy.y 280
param **.Water[83].Phy.x 741
param **.Water[83].Phy.y 955
param **.Water[84].Phy.x 654
param **.Water[84].Phy.y 23
param **.Water[85].Phy.x 832
param **.Water[85].Phy.y 51
param **.Water[86].Phy.x 219
param **.Water[86].Phy.y 380
param **.Water[87].Phy.x 515
param **.Water[87].Phy.y 799
param **.Water[88].Phy.x 500
param **.Water[88].Phy.y 464
param **.Water[89].Phy.x 815
param **.Water[89].Phy.y 285
param **.Water[8].Phy.x 318
param **.Water[8].Phy.y 961
param **.Water[90].Phy.x 953
param **.Water[90].Phy.y 480
param **.Water[91].Phy.x 59
param **.Water[91].Phy.y 894
param **.Water[92].Phy.x 440
param **.Water[92].Phy.y 505
param **.Water[93].Phy.x 743
param **.Water[93].Phy.y 115
param **.Water[94].Phy.x 294
param **.Water[94].Phy.y 74
param **.Water[95].Phy.x 73
param **.Water[95].Phy.y 829
param **.Water[96].Phy.x 721
param **.Water[96].Phy.y 103
param **.Water[97].Phy.x 142
param **.Water[97].Phy.y 464
param **.Water[98].Phy.x 433
param **.Water[98].Phy.y 279
param **.Water[99].Phy.x 728
param **.Water[99].Phy.y 612
param **.Water[9].Phy.x 538
param **.Water[9].Phy.y 583
param *.Fleet[*].App.interTransmitTime 0.5
param *.Fleet[*].Phy.trafficType 77
param *.Gas[*].App.interTransmitTime 0.5
param *.Gas[*].Phy.trafficType 74
param *.Park[*].App.interTransmitTime 0.25
param *.Park[*].Phy.trafficType 78
param *.UE[*].App.interTransmitTime 24
param *.Vending[*].App.interTransmitTime 24
param *.Vending[*].Phy.trafficType 76
param *.Water[*].App.interTransmitTime 12
param *.Water[*].Phy.trafficType 75
param *.eNodeB.fleetNodes 200
param *.eNodeB.gasNodes 100
param *.eNodeB.numNodes 100
param *.eNodeB.parkingNodes 250
param *.eNodeB.vendingNodes 150
param *.eNodeB.waterNodes 100
param MultipleTrafficNetwork.fleetNodes 200
param MultipleTrafficNetwork.gasNodes 100
param MultipleTrafficNetwork.numNodes 100
param MultipleTrafficNetwork.parkingNodes 250
param MultipleTrafficNetwork.vendingNodes 150
param MultipleTrafficNetwork.waterNodes 100

vector 300  MultipleTrafficNetwork.eNodeB  "Total Throughput"  ETV
vector 1967  MultipleTrafficNetwork.Park[5].Mac  "UE power"  ETV
vector 1968  MultipleTrafficNetwork.Park[5].Mac  "Message delay"  ETV
vector 1919  MultipleTrafficNetwork.Fleet[189].Mac  "UE power"  ETV
vector 1920  MultipleTrafficNetwork.Fleet[189].Mac  "Message delay"  ETV
vector 470  MultipleTrafficNetwork.Gas[56].Mac  "UE power"  ETV
vector 471  MultipleTrafficNetwork.Gas[56].Mac  "Message delay"  ETV
vector 2120  MultipleTrafficNetwork.Park[56].Mac  "UE power"  ETV
vector 2121  MultipleTrafficNetwork.Park[56].Mac  "Message delay"  ETV
vector 2357  MultipleTrafficNetwork.Park[135].Mac  "UE power"  ETV
vector 2358  MultipleTrafficNetwork.Park[135].Mac  "Message delay"  ETV
vector 2102  MultipleTrafficNetwork.Park[50].Mac  "UE power"  ETV
vector 2103  MultipleTrafficNetwork.Park[50].Mac  "Message delay"  ETV
vector 2054  MultipleTrafficNetwork.Park[34].Mac  "UE power"  ETV
vector 2055  MultipleTrafficNetwork.Park[34].Mac  "Message delay"  ETV
vector 1502  MultipleTrafficNetwork.Fleet[50].Mac  "UE power"  ETV
vector 1503  MultipleTrafficNetwork.Fleet[50].Mac  "Message delay"  ETV
vector 2024  MultipleTrafficNetwork.Park[24].Mac  "UE power"  ETV
vector 2025  MultipleTrafficNetwork.Park[24].Mac  "Message delay"  ETV
vector 2078  MultipleTrafficNetwork.Park[42].Mac  "UE power"  ETV
vector 2079  MultipleTrafficNetwork.Park[42].Mac  "Message delay"  ETV
vector 452  MultipleTrafficNetwork.Gas[50].Mac  "UE power"  ETV
vector 453  MultipleTrafficNetwork.Gas[50].Mac  "Message delay"  ETV
vector 2522  MultipleTrafficNetwork.Park[190].Mac  "UE power"  ETV
vector 2523  MultipleTrafficNetwork.Park[190].Mac  "Message delay"  ETV
vector 1883  MultipleTrafficNetwork.Fleet[177].Mac  "UE power"  ETV
vector 1884  MultipleTrafficNetwork.Fleet[177].Mac  "Message delay"  ETV
vector 2474  MultipleTrafficNetwork.Park[174].Mac  "UE power"  ETV
vector 2475  MultipleTrafficNetwork.Park[174].Mac  "Message delay"  ETV
vector 2483  MultipleTrafficNetwork.Park[177].Mac  "UE power"  ETV
vector 2484  MultipleTrafficNetwork.Park[177].Mac  "Message delay"  ETV
vector 2327  MultipleTrafficNetwork.Park[125].Mac  "UE power"  ETV
vector 2328  MultipleTrafficNetwork.Park[125].Mac  "Message delay"  ETV
vector 301  MultipleTrafficNetwork.ChannelController  "Total Collisions"  ETV
vector 506  MultipleTrafficNetwork.Gas[68].Mac  "UE power"  ETV
vector 507  MultipleTrafficNetwork.Gas[68].Mac  "Message delay"  ETV
vector 1556  MultipleTrafficNetwork.Fleet[68].Mac  "UE power"  ETV
vector 1557  MultipleTrafficNetwork.Fleet[68].Mac  "Message delay"  ETV
vector 2609  MultipleTrafficNetwork.Park[219].Mac  "UE power"  ETV
vector 2610  MultipleTrafficNetwork.Park[219].Mac  "Message delay"  ETV
vector 2156  MultipleTrafficNetwork.Park[68].Mac  "UE power"  ETV
vector 2157  MultipleTrafficNetwork.Park[68].Mac  "Message delay"  ETV
vector 1694  MultipleTrafficNetwork.Fleet[114].Mac  "UE power"  ETV
vector 1695  MultipleTrafficNetwork.Fleet[114].Mac  "Message delay"  ETV
vector 1751  MultipleTrafficNetwork.Fleet[133].Mac  "UE power"  ETV
vector 1752  MultipleTrafficNetwork.Fleet[133].Mac  "Message delay"  ETV
vector 2351  MultipleTrafficNetwork.Park[133].Mac  "UE power"  ETV
vector 2352  MultipleTrafficNetwork.Park[133].Mac  "Message delay"  ETV
vector 2294  MultipleTrafficNetwork.Park[114].Mac  "UE power"  ETV
vector 2295  MultipleTrafficNetwork.Park[114].Mac  "Message delay"  ETV
vector 2495  MultipleTrafficNetwork.Park[181].Mac  "UE power"  ETV
vector 2496  MultipleTrafficNetwork.Park[181].Mac  "Message delay"  ETV
vector 2546  MultipleTrafficNetwork.Park[198].Mac  "UE power"  ETV
vector 2547  MultipleTrafficNetwork.Park[198].Mac  "Message delay"  ETV
vector 2549  MultipleTrafficNetwork.Park[199].Mac  "UE power"  ETV
vector 2550  MultipleTrafficNetwork.Park[199].Mac  "Message delay"  ETV
vector 1949  MultipleTrafficNetwork.Fleet[199].Mac  "UE power"  ETV
vector 1950  MultipleTrafficNetwork.Fleet[199].Mac  "Message delay"  ETV
vector 2369  MultipleTrafficNetwork.Park[139].Mac  "UE power"  ETV
vector 2370  MultipleTrafficNetwork.Park[139].Mac  "Message delay"  ETV
vector 2681  MultipleTrafficNetwork.Park[243].Mac  "UE power"  ETV
vector 2682  MultipleTrafficNetwork.Park[243].Mac  "Message delay"  ETV
vector 2501  MultipleTrafficNetwork.Park[183].Mac  "UE power"  ETV
vector 2502  MultipleTrafficNetwork.Park[183].Mac  "Message delay"  ETV
vector 308  MultipleTrafficNetwork.Gas[2].Mac  "UE power"  ETV
vector 309  MultipleTrafficNetwork.Gas[2].Mac  "Message delay"  ETV
vector 1811  MultipleTrafficNetwork.Fleet[153].Mac  "UE power"  ETV
vector 1812  MultipleTrafficNetwork.Fleet[153].Mac  "Message delay"  ETV
vector 1358  MultipleTrafficNetwork.Fleet[2].Mac  "UE power"  ETV
vector 1359  MultipleTrafficNetwork.Fleet[2].Mac  "Message delay"  ETV
vector 1958  MultipleTrafficNetwork.Park[2].Mac  "UE power"  ETV
vector 1959  MultipleTrafficNetwork.Park[2].Mac  "Message delay"  ETV
vector 2411  MultipleTrafficNetwork.Park[153].Mac  "UE power"  ETV
vector 2412  MultipleTrafficNetwork.Park[153].Mac  "Message delay"  ETV
vector 2462  MultipleTrafficNetwork.Park[170].Mac  "UE power"  ETV
vector 2463  MultipleTrafficNetwork.Park[170].Mac  "Message delay"  ETV
vector 1898  MultipleTrafficNetwork.Fleet[182].Mac  "UE power"  ETV
vector 1899  MultipleTrafficNetwork.Fleet[182].Mac  "Message delay"  ETV
vector 353  MultipleTrafficNetwork.Gas[17].Mac  "UE power"  ETV
vector 354  MultipleTrafficNetwork.Gas[17].Mac  "Message delay"  ETV
vector 2099  MultipleTrafficNetwork.Park[49].Mac  "UE power"  ETV
vector 2100  MultipleTrafficNetwork.Park[49].Mac  "Message delay"  ETV
vector 2498  MultipleTrafficNetwork.Park[182].Mac  "UE power"  ETV
vector 2499  MultipleTrafficNetwork.Park[182].Mac  "Message delay"  ETV
vector 1403  MultipleTrafficNetwork.Fleet[17].Mac  "UE power"  ETV
vector 1404  MultipleTrafficNetwork.Fleet[17].Mac  "Message delay"  ETV
vector 2003  MultipleTrafficNetwork.Park[17].Mac  "UE power"  ETV
vector 2004  MultipleTrafficNetwork.Park[17].Mac  "Message delay"  ETV
vector 2324  MultipleTrafficNetwork.Park[124].Mac  "UE power"  ETV
vector 2325  MultipleTrafficNetwork.Park[124].Mac  "Message delay"  ETV
vector 1685  MultipleTrafficNetwork.Fleet[111].Mac  "UE power"  ETV
vector 1686  MultipleTrafficNetwork.Fleet[111].Mac  "Message delay"  ETV
vector 2285  MultipleTrafficNetwork.Park[111].Mac  "UE power"  ETV
vector 2286  MultipleTrafficNetwork.Park[111].Mac  "Message delay"  ETV
vector 1832  MultipleTrafficNetwork.Fleet[160].Mac  "UE power"  ETV
vector 1833  MultipleTrafficNetwork.Fleet[160].Mac  "Message delay"  ETV
vector 2432  MultipleTrafficNetwork.Park[160].Mac  "UE power"  ETV
vector 2433  MultipleTrafficNetwork.Park[160].Mac  "Message delay"  ETV
vector 2375  MultipleTrafficNetwork.Park[141].Mac  "UE power"  ETV
vector 2376  MultipleTrafficNetwork.Park[141].Mac  "Message delay"  ETV
vector 2135  MultipleTrafficNetwork.Park[61].Mac  "UE power"  ETV
vector 2136  MultipleTrafficNetwork.Park[61].Mac  "Message delay"  ETV
vector 1775  MultipleTrafficNetwork.Fleet[141].Mac  "UE power"  ETV
vector 1776  MultipleTrafficNetwork.Fleet[141].Mac  "Message delay"  ETV
vector 2654  MultipleTrafficNetwork.Park[234].Mac  "UE power"  ETV
vector 2655  MultipleTrafficNetwork.Park[234].Mac  "Message delay"  ETV
vector 2144  MultipleTrafficNetwork.Park[64].Mac  "UE power"  ETV
vector 2145  MultipleTrafficNetwork.Park[64].Mac  "Message delay"  ETV
vector 377  MultipleTrafficNetwork.Gas[25].Mac  "UE power"  ETV
vector 378  MultipleTrafficNetwork.Gas[25].Mac  "Message delay"  ETV
vector 2027  MultipleTrafficNetwork.Park[25].Mac  "UE power"  ETV
vector 2028  MultipleTrafficNetwork.Park[25].Mac  "Message delay"  ETV
vector 2009  MultipleTrafficNetwork.Park[19].Mac  "UE power"  ETV
vector 2010  MultipleTrafficNetwork.Park[19].Mac  "Message delay"  ETV
vector 2168  MultipleTrafficNetwork.Park[72].Mac  "UE power"  ETV
vector 2169  MultipleTrafficNetwork.Park[72].Mac  "Message delay"  ETV
vector 2396  MultipleTrafficNetwork.Park[148].Mac  "UE power"  ETV
vector 2397  MultipleTrafficNetwork.Park[148].Mac  "Message delay"  ETV
vector 2291  MultipleTrafficNetwork.Park[113].Mac  "UE power"  ETV
vector 2292  MultipleTrafficNetwork.Park[113].Mac  "Message delay"  ETV
vector 416  MultipleTrafficNetwork.Gas[38].Mac  "UE power"  ETV
vector 417  MultipleTrafficNetwork.Gas[38].Mac  "Message delay"  ETV
vector 521  MultipleTrafficNetwork.Gas[73].Mac  "UE power"  ETV
vector 522  MultipleTrafficNetwork.Gas[73].Mac  "Message delay"  ETV
vector 1571  MultipleTrafficNetwork.Fleet[73].Mac  "UE power"  ETV
vector 1572  MultipleTrafficNetwork.Fleet[73].Mac  "Message delay"  ETV
vector 2447  MultipleTrafficNetwork.Park[165].Mac  "UE power"  ETV
vector 2448  MultipleTrafficNetwork.Park[165].Mac  "Message delay"  ETV
vector 2171  MultipleTrafficNetwork.Park[73].Mac  "UE power"  ETV
vector 2172  MultipleTrafficNetwork.Park[73].Mac  "Message delay"  ETV
vector 1406  MultipleTrafficNetwork.Fleet[18].Mac  "UE power"  ETV
vector 1407  MultipleTrafficNetwork.Fleet[18].Mac  "Message delay"  ETV
vector 2006  MultipleTrafficNetwork.Park[18].Mac  "UE power"  ETV
vector 2007  MultipleTrafficNetwork.Park[18].Mac  "Message delay"  ETV
vector 2177  MultipleTrafficNetwork.Park[75].Mac  "UE power"  ETV
vector 2178  MultipleTrafficNetwork.Park[75].Mac  "Message delay"  ETV
vector 2507  MultipleTrafficNetwork.Park[185].Mac  "UE power"  ETV
vector 2508  MultipleTrafficNetwork.Park[185].Mac  "Message delay"  ETV
vector 2450  MultipleTrafficNetwork.Park[166].Mac  "UE power"  ETV
vector 2451  MultipleTrafficNetwork.Park[166].Mac  "Message delay"  ETV
vector 2390  MultipleTrafficNetwork.Park[146].Mac  "UE power"  ETV
vector 2391  MultipleTrafficNetwork.Park[146].Mac  "Message delay"  ETV
vector 329  MultipleTrafficNetwork.Gas[9].Mac  "UE power"  ETV
vector 330  MultipleTrafficNetwork.Gas[9].Mac  "Message delay"  ETV
vector 1379  MultipleTrafficNetwork.Fleet[9].Mac  "UE power"  ETV
vector 1380  MultipleTrafficNetwork.Fleet[9].Mac  "Message delay"  ETV
vector 1850  MultipleTrafficNetwork.Fleet[166].Mac  "UE power"  ETV
vector 1851  MultipleTrafficNetwork.Fleet[166].Mac  "Message delay"  ETV
vector 1748  MultipleTrafficNetwork.Fleet[132].Mac  "UE power"  ETV
vector 1749  MultipleTrafficNetwork.Fleet[132].Mac  "Message delay"  ETV
vector 2318  MultipleTrafficNetwork.Park[122].Mac  "UE power"  ETV
vector 2319  MultipleTrafficNetwork.Park[122].Mac  "Message delay"  ETV
vector 2309  MultipleTrafficNetwork.Park[119].Mac  "UE power"  ETV
vector 2310  MultipleTrafficNetwork.Park[119].Mac  "Message delay"  ETV
vector 1523  MultipleTrafficNetwork.Fleet[57].Mac  "UE power"  ETV
vector 1524  MultipleTrafficNetwork.Fleet[57].Mac  "Message delay"  ETV
vector 2123  MultipleTrafficNetwork.Park[57].Mac  "UE power"  ETV
vector 2124  MultipleTrafficNetwork.Park[57].Mac  "Message delay"  ETV
vector 2348  MultipleTrafficNetwork.Park[132].Mac  "UE power"  ETV
vector 2349  MultipleTrafficNetwork.Park[132].Mac  "Message delay"  ETV
vector 473  MultipleTrafficNetwork.Gas[57].Mac  "UE power"  ETV
vector 474  MultipleTrafficNetwork.Gas[57].Mac  "Message delay"  ETV
vector 497  MultipleTrafficNetwork.Gas[65].Mac  "UE power"  ETV
vector 498  MultipleTrafficNetwork.Gas[65].Mac  "Message delay"  ETV
vector 2147  MultipleTrafficNetwork.Park[65].Mac  "UE power"  ETV
vector 2148  MultipleTrafficNetwork.Park[65].Mac  "Message delay"  ETV
vector 2060  MultipleTrafficNetwork.Park[36].Mac  "UE power"  ETV
vector 2061  MultipleTrafficNetwork.Park[36].Mac  "Message delay"  ETV
vector 710  MultipleTrafficNetwork.Water[36].Mac  "UE power"  ETV
vector 711  MultipleTrafficNetwork.Water[36].Mac  "Message delay"  ETV
vector 2219  MultipleTrafficNetwork.Park[89].Mac  "UE power"  ETV
vector 2220  MultipleTrafficNetwork.Park[89].Mac  "Message delay"  ETV
vector 458  MultipleTrafficNetwork.Gas[52].Mac  "UE power"  ETV
vector 459  MultipleTrafficNetwork.Gas[52].Mac  "Message delay"  ETV
vector 1508  MultipleTrafficNetwork.Fleet[52].Mac  "UE power"  ETV
vector 1509  MultipleTrafficNetwork.Fleet[52].Mac  "Message delay"  ETV
vector 2108  MultipleTrafficNetwork.Park[52].Mac  "UE power"  ETV
vector 2109  MultipleTrafficNetwork.Park[52].Mac  "Message delay"  ETV
vector 2513  MultipleTrafficNetwork.Park[187].Mac  "UE power"  ETV
vector 2514  MultipleTrafficNetwork.Park[187].Mac  "Message delay"  ETV
vector 2342  MultipleTrafficNetwork.Park[130].Mac  "UE power"  ETV
vector 2343  MultipleTrafficNetwork.Park[130].Mac  "Message delay"  ETV
vector 2048  MultipleTrafficNetwork.Park[32].Mac  "UE power"  ETV
vector 2049  MultipleTrafficNetwork.Park[32].Mac  "Message delay"  ETV
vector 2669  MultipleTrafficNetwork.Park[239].Mac  "UE power"  ETV
vector 2670  MultipleTrafficNetwork.Park[239].Mac  "Message delay"  ETV
vector 1742  MultipleTrafficNetwork.Fleet[130].Mac  "UE power"  ETV
vector 1743  MultipleTrafficNetwork.Fleet[130].Mac  "Message delay"  ETV
vector 2096  MultipleTrafficNetwork.Park[48].Mac  "UE power"  ETV
vector 2097  MultipleTrafficNetwork.Park[48].Mac  "Message delay"  ETV
vector 389  MultipleTrafficNetwork.Gas[29].Mac  "UE power"  ETV
vector 390  MultipleTrafficNetwork.Gas[29].Mac  "Message delay"  ETV
vector 1439  MultipleTrafficNetwork.Fleet[29].Mac  "UE power"  ETV
vector 1440  MultipleTrafficNetwork.Fleet[29].Mac  "Message delay"  ETV
vector 2039  MultipleTrafficNetwork.Park[29].Mac  "UE power"  ETV
vector 2040  MultipleTrafficNetwork.Park[29].Mac  "Message delay"  ETV
vector 1370  MultipleTrafficNetwork.Fleet[6].Mac  "UE power"  ETV
vector 1371  MultipleTrafficNetwork.Fleet[6].Mac  "Message delay"  ETV
vector 1970  MultipleTrafficNetwork.Park[6].Mac  "UE power"  ETV
vector 1971  MultipleTrafficNetwork.Park[6].Mac  "Message delay"  ETV
vector 320  MultipleTrafficNetwork.Gas[6].Mac  "UE power"  ETV
vector 321  MultipleTrafficNetwork.Gas[6].Mac  "Message delay"  ETV
vector 2198  MultipleTrafficNetwork.Park[82].Mac  "UE power"  ETV
vector 2199  MultipleTrafficNetwork.Park[82].Mac  "Message delay"  ETV
vector 1991  MultipleTrafficNetwork.Park[13].Mac  "UE power"  ETV
vector 1992  MultipleTrafficNetwork.Park[13].Mac  "Message delay"  ETV
vector 341  MultipleTrafficNetwork.Gas[13].Mac  "UE power"  ETV
vector 342  MultipleTrafficNetwork.Gas[13].Mac  "Message delay"  ETV
vector 1391  MultipleTrafficNetwork.Fleet[13].Mac  "UE power"  ETV
vector 1392  MultipleTrafficNetwork.Fleet[13].Mac  "Message delay"  ETV
vector 2300  MultipleTrafficNetwork.Park[116].Mac  "UE power"  ETV
vector 2301  MultipleTrafficNetwork.Park[116].Mac  "Message delay"  ETV
vector 2093  MultipleTrafficNetwork.Park[47].Mac  "UE power"  ETV
vector 2094  MultipleTrafficNetwork.Park[47].Mac  "Message delay"  ETV
vector 2399  MultipleTrafficNetwork.Park[149].Mac  "UE power"  ETV
vector 2400  MultipleTrafficNetwork.Park[149].Mac  "Message delay"  ETV
vector 1700  MultipleTrafficNetwork.Fleet[116].Mac  "UE power"  ETV
vector 1701  MultipleTrafficNetwork.Fleet[116].Mac  "Message delay"  ETV
vector 1781  MultipleTrafficNetwork.Fleet[143].Mac  "UE power"  ETV
vector 1782  MultipleTrafficNetwork.Fleet[143].Mac  "Message delay"  ETV
vector 2381  MultipleTrafficNetwork.Park[143].Mac  "UE power"  ETV
vector 2382  MultipleTrafficNetwork.Park[143].Mac  "Message delay"  ETV
vector 2333  MultipleTrafficNetwork.Park[127].Mac  "UE power"  ETV
vector 2334  MultipleTrafficNetwork.Park[127].Mac  "Message delay"  ETV
vector 2651  MultipleTrafficNetwork.Park[233].Mac  "UE power"  ETV
vector 2652  MultipleTrafficNetwork.Park[233].Mac  "Message delay"  ETV
vector 2225  MultipleTrafficNetwork.Park[91].Mac  "UE power"  ETV
vector 2226  MultipleTrafficNetwork.Park[91].Mac  "Message delay"  ETV
vector 2207  MultipleTrafficNetwork.Park[85].Mac  "UE power"  ETV
vector 2208  MultipleTrafficNetwork.Park[85].Mac  "Message delay"  ETV
vector 2471  MultipleTrafficNetwork.Park[173].Mac  "UE power"  ETV
vector 2472  MultipleTrafficNetwork.Park[173].Mac  "Message delay"  ETV
vector 557  MultipleTrafficNetwork.Gas[85].Mac  "UE power"  ETV
vector 558  MultipleTrafficNetwork.Gas[85].Mac  "Message delay"  ETV
vector 1871  MultipleTrafficNetwork.Fleet[173].Mac  "UE power"  ETV
vector 1872  MultipleTrafficNetwork.Fleet[173].Mac  "Message delay"  ETV
vector 2642  MultipleTrafficNetwork.Park[230].Mac  "UE power"  ETV
vector 2643  MultipleTrafficNetwork.Park[230].Mac  "Message delay"  ETV
vector 1607  MultipleTrafficNetwork.Fleet[85].Mac  "UE power"  ETV
vector 1608  MultipleTrafficNetwork.Fleet[85].Mac  "Message delay"  ETV
vector 1613  MultipleTrafficNetwork.Fleet[87].Mac  "UE power"  ETV
vector 1614  MultipleTrafficNetwork.Fleet[87].Mac  "Message delay"  ETV
vector 563  MultipleTrafficNetwork.Gas[87].Mac  "UE power"  ETV
vector 564  MultipleTrafficNetwork.Gas[87].Mac  "Message delay"  ETV
vector 2213  MultipleTrafficNetwork.Park[87].Mac  "UE power"  ETV
vector 2214  MultipleTrafficNetwork.Park[87].Mac  "Message delay"  ETV
vector 2186  MultipleTrafficNetwork.Park[78].Mac  "UE power"  ETV
vector 2187  MultipleTrafficNetwork.Park[78].Mac  "Message delay"  ETV
vector 536  MultipleTrafficNetwork.Gas[78].Mac  "UE power"  ETV
vector 537  MultipleTrafficNetwork.Gas[78].Mac  "Message delay"  ETV
vector 1586  MultipleTrafficNetwork.Fleet[78].Mac  "UE power"  ETV
vector 1587  MultipleTrafficNetwork.Fleet[78].Mac  "Message delay"  ETV
vector 2528  MultipleTrafficNetwork.Park[192].Mac  "UE power"  ETV
vector 2529  MultipleTrafficNetwork.Park[192].Mac  "Message delay"  ETV
vector 1580  MultipleTrafficNetwork.Fleet[76].Mac  "UE power"  ETV
vector 1581  MultipleTrafficNetwork.Fleet[76].Mac  "Message delay"  ETV
vector 2180  MultipleTrafficNetwork.Park[76].Mac  "UE power"  ETV
vector 2181  MultipleTrafficNetwork.Park[76].Mac  "Message delay"  ETV
vector 2312  MultipleTrafficNetwork.Park[120].Mac  "UE power"  ETV
vector 2313  MultipleTrafficNetwork.Park[120].Mac  "Message delay"  ETV
vector 530  MultipleTrafficNetwork.Gas[76].Mac  "UE power"  ETV
vector 531  MultipleTrafficNetwork.Gas[76].Mac  "Message delay"  ETV
vector 533  MultipleTrafficNetwork.Gas[77].Mac  "UE power"  ETV
vector 534  MultipleTrafficNetwork.Gas[77].Mac  "Message delay"  ETV
vector 1583  MultipleTrafficNetwork.Fleet[77].Mac  "UE power"  ETV
vector 1584  MultipleTrafficNetwork.Fleet[77].Mac  "Message delay"  ETV
vector 2684  MultipleTrafficNetwork.Park[244].Mac  "UE power"  ETV
vector 2685  MultipleTrafficNetwork.Park[244].Mac  "Message delay"  ETV
vector 2192  MultipleTrafficNetwork.Park[80].Mac  "UE power"  ETV
vector 2193  MultipleTrafficNetwork.Park[80].Mac  "Message delay"  ETV
vector 344  MultipleTrafficNetwork.Gas[14].Mac  "UE power"  ETV
vector 345  MultipleTrafficNetwork.Gas[14].Mac  "Message delay"  ETV
vector 1394  MultipleTrafficNetwork.Fleet[14].Mac  "UE power"  ETV
vector 1395  MultipleTrafficNetwork.Fleet[14].Mac  "Message delay"  ETV
vector 1472  MultipleTrafficNetwork.Fleet[40].Mac  "UE power"  ETV
vector 1473  MultipleTrafficNetwork.Fleet[40].Mac  "Message delay"  ETV
vector 1514  MultipleTrafficNetwork.Fleet[54].Mac  "UE power"  ETV
vector 1515  MultipleTrafficNetwork.Fleet[54].Mac  "Message delay"  ETV
vector 1526  MultipleTrafficNetwork.Fleet[58].Mac  "UE power"  ETV
vector 1527  MultipleTrafficNetwork.Fleet[58].Mac  "Message delay"  ETV
vector 1994  MultipleTrafficNetwork.Park[14].Mac  "UE power"  ETV
vector 1995  MultipleTrafficNetwork.Park[14].Mac  "Message delay"  ETV
vector 2126  MultipleTrafficNetwork.Park[58].Mac  "UE power"  ETV
vector 2127  MultipleTrafficNetwork.Park[58].Mac  "Message delay"  ETV
vector 422  MultipleTrafficNetwork.Gas[40].Mac  "UE power"  ETV
vector 423  MultipleTrafficNetwork.Gas[40].Mac  "Message delay"  ETV
vector 464  MultipleTrafficNetwork.Gas[54].Mac  "UE power"  ETV
vector 465  MultipleTrafficNetwork.Gas[54].Mac  "Message delay"  ETV
vector 2072  MultipleTrafficNetwork.Park[40].Mac  "UE power"  ETV
vector 2073  MultipleTrafficNetwork.Park[40].Mac  "Message delay"  ETV
vector 2114  MultipleTrafficNetwork.Park[54].Mac  "UE power"  ETV
vector 2115  MultipleTrafficNetwork.Park[54].Mac  "Message delay"  ETV
vector 2216  MultipleTrafficNetwork.Park[88].Mac  "UE power"  ETV
vector 2217  MultipleTrafficNetwork.Park[88].Mac  "Message delay"  ETV
vector 1721  MultipleTrafficNetwork.Fleet[123].Mac  "UE power"  ETV
vector 1722  MultipleTrafficNetwork.Fleet[123].Mac  "Message delay"  ETV
vector 2696  MultipleTrafficNetwork.Park[248].Mac  "UE power"  ETV
vector 2697  MultipleTrafficNetwork.Park[248].Mac  "Message delay"  ETV
vector 1616  MultipleTrafficNetwork.Fleet[88].Mac  "UE power"  ETV
vector 1617  MultipleTrafficNetwork.Fleet[88].Mac  "Message delay"  ETV
vector 476  MultipleTrafficNetwork.Gas[58].Mac  "UE power"  ETV
vector 477  MultipleTrafficNetwork.Gas[58].Mac  "Message delay"  ETV
vector 455  MultipleTrafficNetwork.Gas[51].Mac  "UE power"  ETV
vector 456  MultipleTrafficNetwork.Gas[51].Mac  "Message delay"  ETV
vector 2105  MultipleTrafficNetwork.Park[51].Mac  "UE power"  ETV
vector 2106  MultipleTrafficNetwork.Park[51].Mac  "Message delay"  ETV
vector 2321  MultipleTrafficNetwork.Park[123].Mac  "UE power"  ETV
vector 2322  MultipleTrafficNetwork.Park[123].Mac  "Message delay"  ETV
vector 2282  MultipleTrafficNetwork.Park[110].Mac  "UE power"  ETV
vector 2283  MultipleTrafficNetwork.Park[110].Mac  "Message delay"  ETV
vector 566  MultipleTrafficNetwork.Gas[88].Mac  "UE power"  ETV
vector 567  MultipleTrafficNetwork.Gas[88].Mac  "Message delay"  ETV
vector 1505  MultipleTrafficNetwork.Fleet[51].Mac  "UE power"  ETV
vector 1506  MultipleTrafficNetwork.Fleet[51].Mac  "Message delay"  ETV
vector 1412  MultipleTrafficNetwork.Fleet[20].Mac  "UE power"  ETV
vector 1413  MultipleTrafficNetwork.Fleet[20].Mac  "Message delay"  ETV
vector 2420  MultipleTrafficNetwork.Park[156].Mac  "UE power"  ETV
vector 2421  MultipleTrafficNetwork.Park[156].Mac  "Message delay"  ETV
vector 362  MultipleTrafficNetwork.Gas[20].Mac  "UE power"  ETV
vector 363  MultipleTrafficNetwork.Gas[20].Mac  "Message delay"  ETV
vector 2012  MultipleTrafficNetwork.Park[20].Mac  "UE power"  ETV
vector 2013  MultipleTrafficNetwork.Park[20].Mac  "Message delay"  ETV
vector 2249  MultipleTrafficNetwork.Park[99].Mac  "UE power"  ETV
vector 2250  MultipleTrafficNetwork.Park[99].Mac  "Message delay"  ETV
vector 2699  MultipleTrafficNetwork.Park[249].Mac  "UE power"  ETV
vector 2700  MultipleTrafficNetwork.Park[249].Mac  "Message delay"  ETV
vector 2252  MultipleTrafficNetwork.Park[100].Mac  "UE power"  ETV
vector 2253  MultipleTrafficNetwork.Park[100].Mac  "Message delay"  ETV
vector 2090  MultipleTrafficNetwork.Park[46].Mac  "UE power"  ETV
vector 2091  MultipleTrafficNetwork.Park[46].Mac  "Message delay"  ETV
vector 1652  MultipleTrafficNetwork.Fleet[100].Mac  "UE power"  ETV
vector 1653  MultipleTrafficNetwork.Fleet[100].Mac  "Message delay"  ETV
vector 440  MultipleTrafficNetwork.Gas[46].Mac  "UE power"  ETV
vector 441  MultipleTrafficNetwork.Gas[46].Mac  "Message delay"  ETV
vector 1490  MultipleTrafficNetwork.Fleet[46].Mac  "UE power"  ETV
vector 1491  MultipleTrafficNetwork.Fleet[46].Mac  "Message delay"  ETV
vector 380  MultipleTrafficNetwork.Gas[26].Mac  "UE power"  ETV
vector 381  MultipleTrafficNetwork.Gas[26].Mac  "Message delay"  ETV
vector 2030  MultipleTrafficNetwork.Park[26].Mac  "UE power"  ETV
vector 2031  MultipleTrafficNetwork.Park[26].Mac  "Message delay"  ETV
vector 1688  MultipleTrafficNetwork.Fleet[112].Mac  "UE power"  ETV
vector 1689  MultipleTrafficNetwork.Fleet[112].Mac  "Message delay"  ETV
vector 1430  MultipleTrafficNetwork.Fleet[26].Mac  "UE power"  ETV
vector 1431  MultipleTrafficNetwork.Fleet[26].Mac  "Message delay"  ETV
vector 2288  MultipleTrafficNetwork.Park[112].Mac  "UE power"  ETV
vector 2289  MultipleTrafficNetwork.Park[112].Mac  "Message delay"  ETV
vector 2534  MultipleTrafficNetwork.Park[194].Mac  "UE power"  ETV
vector 2535  MultipleTrafficNetwork.Park[194].Mac  "Message delay"  ETV
vector 1868  MultipleTrafficNetwork.Fleet[172].Mac  "UE power"  ETV
vector 1869  MultipleTrafficNetwork.Fleet[172].Mac  "Message delay"  ETV
vector 1766  MultipleTrafficNetwork.Fleet[138].Mac  "UE power"  ETV
vector 1767  MultipleTrafficNetwork.Fleet[138].Mac  "Message delay"  ETV
vector 2468  MultipleTrafficNetwork.Park[172].Mac  "UE power"  ETV
vector 2469  MultipleTrafficNetwork.Park[172].Mac  "Message delay"  ETV
vector 2366  MultipleTrafficNetwork.Park[138].Mac  "UE power"  ETV
vector 2367  MultipleTrafficNetwork.Park[138].Mac  "Message delay"  ETV
vector 2273  MultipleTrafficNetwork.Park[107].Mac  "UE power"  ETV
vector 2274  MultipleTrafficNetwork.Park[107].Mac  "Message delay"  ETV
vector 1880  MultipleTrafficNetwork.Fleet[176].Mac  "UE power"  ETV
vector 1881  MultipleTrafficNetwork.Fleet[176].Mac  "Message delay"  ETV
vector 2480  MultipleTrafficNetwork.Park[176].Mac  "UE power"  ETV
vector 2481  MultipleTrafficNetwork.Park[176].Mac  "Message delay"  ETV
vector 524  MultipleTrafficNetwork.Gas[74].Mac  "UE power"  ETV
vector 525  MultipleTrafficNetwork.Gas[74].Mac  "Message delay"  ETV
vector 1955  MultipleTrafficNetwork.Park[1].Mac  "UE power"  ETV
vector 1956  MultipleTrafficNetwork.Park[1].Mac  "Message delay"  ETV
vector 305  MultipleTrafficNetwork.Gas[1].Mac  "UE power"  ETV
vector 306  MultipleTrafficNetwork.Gas[1].Mac  "Message delay"  ETV
vector 1355  MultipleTrafficNetwork.Fleet[1].Mac  "UE power"  ETV
vector 1356  MultipleTrafficNetwork.Fleet[1].Mac  "Message delay"  ETV
vector 2678  MultipleTrafficNetwork.Park[242].Mac  "UE power"  ETV
vector 2679  MultipleTrafficNetwork.Park[242].Mac  "Message delay"  ETV
vector 1574  MultipleTrafficNetwork.Fleet[74].Mac  "UE power"  ETV
vector 1575  MultipleTrafficNetwork.Fleet[74].Mac  "Message delay"  ETV
vector 2174  MultipleTrafficNetwork.Park[74].Mac  "UE power"  ETV
vector 2175  MultipleTrafficNetwork.Park[74].Mac  "Message delay"  ETV
vector 2543  MultipleTrafficNetwork.Park[197].Mac  "UE power"  ETV
vector 2544  MultipleTrafficNetwork.Park[197].Mac  "Message delay"  ETV
vector 1943  MultipleTrafficNetwork.Fleet[197].Mac  "UE power"  ETV
vector 1944  MultipleTrafficNetwork.Fleet[197].Mac  "Message delay"  ETV
vector 2675  MultipleTrafficNetwork.Park[241].Mac  "UE power"  ETV
vector 2676  MultipleTrafficNetwork.Park[241].Mac  "Message delay"  ETV
vector 2087  MultipleTrafficNetwork.Park[45].Mac  "UE power"  ETV
vector 2088  MultipleTrafficNetwork.Park[45].Mac  "Message delay"  ETV
vector 2276  MultipleTrafficNetwork.Park[108].Mac  "UE power"  ETV
vector 2277  MultipleTrafficNetwork.Park[108].Mac  "Message delay"  ETV
vector 1475  MultipleTrafficNetwork.Fleet[41].Mac  "UE power"  ETV
vector 1476  MultipleTrafficNetwork.Fleet[41].Mac  "Message delay"  ETV
vector 1853  MultipleTrafficNetwork.Fleet[167].Mac  "UE power"  ETV
vector 1854  MultipleTrafficNetwork.Fleet[167].Mac  "Message delay"  ETV
vector 2453  MultipleTrafficNetwork.Park[167].Mac  "UE power"  ETV
vector 2454  MultipleTrafficNetwork.Park[167].Mac  "Message delay"  ETV
[...]
2376	22560364 2855 125429 83683153 160.208 85660.208 96 3.208 3.226 308.121 988.944693
2381	22563219 3806 256305 83829227 312.208 85812.208 96 17794443.513098 17997956.651999 1718034658.5786 3.074662048242e+16
2382	22567025 2856 256305 83829227 312.208 85812.208 96 3.208 3.217 308.049 988.481769
2384	22569881 3804 750698 84207911 692.808 86192.817 96 17920012.157762 17999258.907 1724125251.4525 3.0964716735528e+16
2385	22573685 2856 750698 84207911 692.808 86192.817 96 0.808 0.826 77.631 62.777481
2390	22576541 3805 167701 83747377 213.408 85713.417 96 17627045.222332 17996214.181998 1709916799.6591 3.0457524269131e+16
2391	22580346 2855 167701 83747377 213.408 85713.417 96 6.408 6.417 615.213 3942.573669
2393	22583201 3805 789136 84250811 712.208 86212.208 96 17794452.227693 17997950.651999 1718035838.5207 3.0746662665388e+16
2394	22587006 2856 789136 84250811 712.208 86212.208 96 3.208 3.217 308.022 988.308294
2396	22589862 3805 140600 83710169 186.208 85686.208 96 17794465.022558 17997958.541999 1718036257.5251 3.0746677639886e+16
2397	22593667 2855 140600 83710169 186.208 85686.208 96 3.208 3.217 308.013 988.250469
2399	22596522 3802 250161 83825259 300.408 85800.408 96 17627058.632062 17996212.876998 1709917159.9611 3.0457537067729e+16
2400	22600324 2856 250161 83825259 300.408 85800.408 96 6.408 6.426 615.186 3942.227556
2402	22603180 3806 799218 84258027 725.208 86225.208 96 17794456.937558 17997950.456999 1718035172.3586 3.0746638809258e+16
2403	22606986 2856 799218 84258027 725.208 86225.208 96 3.208 3.226 308.013 988.250631
2408	22609842 3807 514249 83999205 496.217 85996.208 96 17794367.180123 17997948.986999 1718031097.5473 3.0746493274271e+16
2409	22613649 2856 514249 83999205 496.217 85996.208 96 3.208 3.226 308.184 989.349468
2411	22616505 3801 87406 83655517 105.208 85605.208 96 17794363.235393 17997959.756999 1718032052.9762 3.0746527554969e+16
2412	22620306 2854 87406 83655517 105.208 85605.208 96 3.208 3.244 308.202 989.466252
2414	22623160 3804 495579 83983293 475.808 85975.808 96 17920035.032357 17999262.162 1724126020.0855 3.0964744318596e+16
2415	22626964 2856 495579 83983293 475.808 85975.808 96 0.808 0.817 77.595 62.718819
2417	22629820 3802 556175 84032874 535.808 86035.808 96 17920034.132357 17999261.262 1724126012.1633 3.0964744049058e+16
2418	22633622 2856 556175 84032874 535.808 86035.808 96 0.808 0.817 77.595 62.718819
2420	22636478 3805 379174 83898277 373.808 85873.817 96 17919796.223837 17999263.692 1724114076.4666 3.0964315643187e+16
2421	22640283 2856 379174 83898277 373.808 85873.817 96 0.808 0.826 78.036 63.436416
2423	22643139 3803 613312 84077304 575.808 86075.808 96 17919861.862082 17999260.662 1724117650.6221 3.0964443932774e+16
2424	22646942 2856 613312 84077304 575.808 86075.808 96 0.808 0.835 77.91 63.232314
2426	22649798 3802 501074 83987247 489.808 85989.817 96 17920005.393032 17999261.952 1724125053.2857 3.0964709641114e+16
2427	22653600 2856 501074 83987247 489.808 85989.817 96 0.808 0.826 77.649 62.806731
2429	22656456 3804 742117 84195805 678.808 86178.808 96 17920012.367897 17999259.117 1724125310.8514 3.0964718870795e+16
2430	22660260 2856 742117 84195805 678.808 86178.808 96 0.808 0.817 77.631 62.777319
2432	22663116 3803 119786 83678849 157.808 85657.808 96 17920000.563437 17999266.932 1724124942.7816 3.0964705690263e+16
2433	22666919 2855 119786 83678849 157.808 85657.808 96 0.808 0.817 77.667 62.835819
2435	22669774 3805 883958 84337898 830.808 86330.817 96 17920019.897492 17999256.837 1724125317.5955 3.0964719104601e+16
2436	22673579 2856 883958 84337898 830.808 86330.817 96 0.808 0.826 77.613 62.748231
2438	22676435 3805 736110 84178481 663.408 86163.417 96 17626955.089627 17996207.431998 1709911055.502 3.045732006089e+16
2439	22680240 2856 736110 84178481 663.408 86163.417 96 6.408 6.426 615.366 3944.53638
2441	22683096 3805 791004 84254367 714.208 86214.208 96 17794466.912288 17997950.621999 1718035948.453 3.0746666536956e+16
2442	22686901 2856 791004 84254367 714.208 86214.208 96 3.208 3.217 307.995 988.134819
2444	22689757 3806 736111 84178482 663.408 86163.417 96 17626935.470167 17996207.431998 1709910991.7382 3.0457317978446e+16
2445	22693563 2856 736111 84178482 663.408 86163.417 96 6.408 6.426 615.402 3944.997918
2447	22696419 3803 151891 83721241 195.208 85695.208 96 17794445.268098 17997958.406999 1718036273.9938 3.0746678293768e+16
2448	22700222 2855 151891 83721241 195.208 85695.208 96 3.208 3.226 308.049 988.481931
2450	22703077 3802 163585 83744000 210.808 85710.808 96 17920034.102492 17999266.137 1724126058.3448 3.0964745710597e+16
2451	22706879 2855 163585 83744000 210.808 85710.808 96 0.808 0.817 77.604 62.733444
2453	22709734 3803 484107 83976857 462.808 85962.808 96 17920030.322492 17999262.357 1724126391.9556 3.0964757690177e+16
2454	22713537 2856 484107 83976857 462.808 85962.808 96 0.808 0.817 77.604 62.733444
2456	22716393 3804 577053 84049715 556.208 86056.208 96 17794469.282288 17997952.991999 1718036347.6432 3.0746680863299e+16
2457	22720197 2856 577053 84049715 556.208 86056.208 96 3.208 3.217 307.995 988.134819
2459	22723053 3806 884282 84338216 831.208 86331.208 96 17794479.871883 17997948.866999 1718036579.4664 3.0746689090297e+16
2460	22726859 2856 884282 84338216 831.208 86331.208 96 3.208 3.208 307.968 987.961344
2462	22729715 3801 91541 83658649 124.808 85624.808 96 17920020.677897 17999267.427 1724125264.9746 3.0964717232886e+16
2463	22733516 2854 91541 83658649 124.808 85624.808 96 0.808 0.817 77.631 62.777319
2465	22736370 3801 737974 84180344 666.808 86166.808 96 17920046.881952 17999259.297 1724126696.5897 3.0964768606684e+16
2466	22740171 2856 737974 84180344 666.808 86166.808 96 0.808 0.808 77.568 62.674944
2468	22743027 3809 432015 83941103 424.408 85924.408 96 17627037.152602 17996211.016998 1709916196.6222 3.0457502861878e+16
2469	22746836 2856 432015 83941103 424.408 85924.408 96 6.408 6.417 615.222 3942.689094
2471	22749692 3804 274420 83848850 324.808 85824.808 96 17920017.677897 17999264.427 1724124913.2114 3.0964704571979e+16
2472	22753496 2856 274420 83848850 324.808 85824.808 96 0.808 0.835 77.631 62.777805
2474	22756352 3799 43193 83608424 43.808 85543.808 96 17920026.797762 17999268.642 1724126671.5943 3.0964767743595e+16
2475	22760151 2850 43193 83608424 43.808 85543.808 96 0.808 0.826 77.622 62.762856
2480	22763001 3808 441384 83948794 434.208 85934.208 96 17794466.207423 17997954.821999 1718036523.3231 3.0746687115084e+16
2481	22766809 2856 441384 83948794 434.208 85934.208 96 3.208 3.217 308.004 988.192644
2483	22769665 3797 44642 83609895 45.208 85545.208 96 17794467.137558 17997960.656999 1718036122.1294 3.0746672794555e+16
2484	22773462 2850 44642 83609895 45.208 85545.208 96 3.208 3.217 308.013 988.250469
2486	22776312 3806 697149 84146184 649.408 86149.408 96 17627038.682467 17996207.641998 1709916000.1488 3.0457495831979e+16
2487	22780118 2856 697149 84146184 649.408 86149.408 96 6.408 6.426 615.213 3942.573831
2489	22782974 3802 779699 84230358 703.808 86203.808 96 17920016.897762 17999258.742 1724124504.7877 3.0964689917747e+16
2490	22786776 2856 779699 84230358 703.808 86203.808 96 0.808 0.817 77.622 62.762694
2492	22789632 3806 610530 84073522 574.208 86074.208 96 17794380.724718 17997952.721999 1718031956.3909 3.0746524011233e+16
2493	22793438 2856 610530 84073522 574.208 86074.208 96 3.208 3.226 308.157 989.175993
2495	22796294 3801 68331 83636936 74.208 85574.208 96 17794486.322018 17997960.221999 1718037488.0662 3.0746721634234e+16
2496	22800095 2851 68331 83636936 74.208 85574.208 96 3.208 3.217 307.977 988.019169
2498	22802946 3803 106111 83666838 129.408 85629.408 96 17627051.387332 17996215.441998 1709917121.7187 3.0457535732435e+16
2499	22806749 2855 106111 83666838 129.408 85629.408 96 6.408 6.417 615.204 3942.458244
2501	22809604 3798 79233 83648791 95.808 85595.808 96 17920035.827492 17999267.862 1724126272.9934 3.0964753416125e+16
2502	22813402 2851 79233 83648791 95.808 85595.808 96 0.808 0.826 77.604 62.733606
2504	22816253 3804 945570 84379900 894.408 86394.408 96 17627030.102602 17996203.966998 1709914872.38 3.0457455598422e+16
2505	22820057 2856 945570 84379900 894.408 86394.408 96 6.408 6.426 615.222 3942.689418
2507	22822913 3805 159453 83739668 206.408 85706.408 96 17627064.946927 17996214.286998 1709917231.558 3.0457539557426e+16
2508	22826718 2855 159453 83739668 206.408 85706.408 96 6.408 6.417 615.177 3942.111969
2513	22829573 3805 211214 83779874 249.808 85749.808 96 17920018.802897 17999265.552 1724124829.9216 3.096470159903e+16
2514	22833378 2855 211214 83779874 249.808 85749.808 96 0.808 0.826 77.631 62.777481
2516	22836233 3807 718588 84161939 655.408 86155.408 96 17627028.782737 17996207.551998 1709915849.2674 3.0457490486239e+16
2517	22840040 2856 718588 84161939 655.408 86155.408 96 6.408 6.417 615.231 3942.804519
2522	22842896 3795 40885 83606113 41.808 85541.808 96 17920056.256952 17999268.672 1724127596.5897 3.0964800934068e+16
2523	22846691 2850 40885 83606113 41.808 85541.808 96 0.808 0.808 77.568 62.674944
2525	22849541 3804 494113 83982333 471.208 85971.208 96 17794470.557288 17997954.266999 1718036239.5146 3.0746676966101e+16
2526	22853345 2856 494113 83982333 471.208 85971.208 96 3.208 3.217 307.995 988.134819
2528	22856201 3801 296896 83856992 344.808 85844.808 96 17920051.711952 17999264.127 1724127160.2697 3.096478526175e+16
2529	22860002 2856 296896 83856992 344.808 85844.808 96 0.808 0.808 77.568 62.674944
2531	22862858 3803 630864 84091459 595.808 86095.808 96 17920038.137222 17999260.362 1724126416.2499 3.096475855342e+16
2532	22866661 2856 630864 84091459 595.808 86095.808 96 0.808 0.817 77.586 62.704194
2534	22869517 3805 424974 83931767 416.808 85916.808 96 17920011.393032 17999263.047 1724125624.368 3.0964730142459e+16
2535	22873322 2856 424974 83931767 416.808 85916.808 96 0.808 0.835 77.64 62.792592
2537	22876178 3804 784701 84240378 707.408 86207.408 96 17627037.812467 17996206.771998 1709915465.3812 3.045747674904e+16
2538	22879982 2856 784701 84240378 707.408 86207.408 96 6.408 6.417 615.213 3942.573669
2540	22882838 3801 585104 84060178 564.808 86064.808 96 17920033.697357 17999260.827 1724126509.9385 3.0964761922362e+16
2541	22886639 2856 585104 84060178 564.808 86064.808 96 0.808 0.817 77.595 62.718819
2543	22889495 3809 464226 83957994 444.208 85944.208 96 17794475.867153 17997954.671999 1718036822.8347 3.0746697837265e+16
2544	22893304 2856 464226 83957994 444.208 85944.208 96 3.208 3.217 307.986 988.076994
2546	22896160 3801 70978 83642501 79.208 85579.208 96 17794491.151883 17997960.146999 1718037662.3464 3.0746727849214e+16
2547	22899961 2851 70978 83642501 79.208 85579.208 96 3.208 3.208 307.968 987.961344
2549	22902812 3798 72444 83643507 83.808 85583.808 96 17920031.102627 17999268.042 1724126653.2333 3.0964767088296e+16
2550	22906610 2851 72444 83643507 83.808 85583.808 96 0.808 0.817 77.613 62.748069
2558	22909461 3806 875584 84332671 826.208 86326.208 96 17794479.946883 17997948.941999 1718036586.6664 3.0746689348002e+16
2559	22913267 2856 875584 84332671 826.208 86326.208 96 3.208 3.208 307.968 987.961344
2561	22916123 3799 640889 84098691 617.817 86117.808 96 17920003.473167 17999255.127 1724124957.2533 3.0964706165653e+16
2562	22919922 2856 640889 84098691 617.817 86117.808 96 0.808 0.826 77.649 62.806731
2567	22922778 3805 665499 84124102 636.408 86136.408 96 17627063.401792 17996207.836998 1709917019.4619 3.0457531981305e+16
2568	22926583 2856 665499 84124102 636.408 86136.408 96 6.408 6.408 615.168 3941.996544
2570	22929439 3805 727110 84169255 658.408 86158.408 96 17627063.071792 17996207.506998 1709916987.7819 3.045753085276e+16
2571	22933244 2856 727110 84169255 658.408 86158.408 96 6.408 6.408 615.168 3941.996544
2573	22936100 3801 554816 84032023 530.808 86030.808 96 17920048.921952 17999261.337 1724126892.4297 3.0964775641122e+16
2574	22939901 2856 554816 84032023 530.808 86030.808 96 0.808 0.808 77.568 62.674944
2576	22942757 3806 870117 84324259 817.208 86317.208 96 17794480.081883 17997949.076999 1718036599.6264 3.0746689811872e+16
2577	22946563 2856 870117 84324259 817.208 86317.208 96 3.208 3.208 307.968 987.961344
2579	22949419 3806 500105 83985733 484.208 85984.208 96 17794485.076883 17997954.071999 1718037079.1464 3.074670697506e+16
2580	22953225 2856 500105 83985733 484.208 85984.208 96 3.208 3.208 307.968 987.961344
2582	22956081 3805 826800 84275036 775.408 86275.408 96 17627061.316792 17996205.751998 1709916819.3019 3.0457524850951e+16
2583	22959886 2856 826800 84275036 775.408 86275.408 96 6.408 6.408 615.168 3941.996544
2585	22962742 3801 885388 84339490 833.808 86333.808 96 17920044.376952 17999256.792 1724126456.1097 3.096475996881e+16
2586	22966543 2856 885388 84339490 833.808 86333.808 96 0.808 0.808 77.568 62.674944
2588	22969399 3801 805756 84259187 736.808 86236.808 96 17920045.831952 17999258.247 1724126595.7897 3.0964764986018e+16
2589	22973200 2856 805756 84259187 736.808 86236.808 96 0.808 0.808 77.568 62.674944
2591	22976056 3805 652307 84108728 627.408 86127.408 96 17627063.536792 17996207.971998 1709917032.4219 3.0457532442982e+16
2592	22979861 2856 652307 84108728 627.408 86127.408 96 6.408 6.408 615.168 3941.996544
2594	22982717 3801 738865 84181236 671.808 86171.808 96 17920046.806952 17999259.222 1724126689.3897 3.0964768348065e+16
2595	22986518 2856 738865 84181236 671.808 86171.808 96 0.808 0.808 77.568 62.674944
2597	22989374 3801 540495 84015139 514.808 86014.808 96 17920049.161952 17999261.577 1724126915.4697 3.0964776468703e+16
2598	22993175 2856 540495 84015139 514.808 86014.808 96 0.808 0.808 77.568 62.674944
2600	22996031 3806 776600 84226917 702.208 86202.208 96 17794481.806883 17997950.801999 1718036765.2264 3.0746695739099e+16
2601	22999837 2856 776600 84226917 702.208 86202.208 96 3.208 3.208 307.968 987.961344
2603	23002693 3806 853766 84300813 795.208 86295.208 96 17794480.411883 17997949.406999 1718036631.3064 3.0746690945776e+16
2604	23006499 2856 853766 84300813 795.208 86295.208 96 3.208 3.208 307.968 987.961344
2606	23009355 3801 737454 84179826 665.808 86165.808 96 17920046.896952 17999259.312 1724126698.0297 3.0964768658408e+16
2607	23013156 2856 737454 84179826 665.808 86165.808 96 0.808 0.808 77.568 62.674944
2609	23016012 3796 50311 83618436 50.808 85550.808 96 17920056.121952 17999268.537 1724127583.6297 3.0964800468554e+16
2610	23019808 2851 50311 83618436 50.808 85550.808 96 0.808 0.808 77.568 62.674944
2612	23022659 3806 672372 84135014 642.808 86142.808 96 17919954.049517 17999259.657 1724123940.2789 3.0964669722473e+16
2613	23026465 2856 672372 84135014 642.808 86142.808 96 0.808 0.853 77.739 62.954601
2615	23029321 3806 543060 84018000 521.208 86021.208 96 17794484.521883 17997953.516999 1718037025.8664 3.0746705068039e+16
2616	23033127 2856 543060 84018000 521.208 86021.208 96 3.208 3.208 307.968 987.961344
2618	23035983 3801 651701 84108122 626.808 86126.808 96 17920047.481952 17999259.897 1724126754.1897 3.0964770675636e+16
2619	23039784 2856 651701 84108122 626.808 86126.808 96 0.808 0.808 77.568 62.674944
2621	23042640 3804 606996 84070333 572.417 86072.408 96 17627000.598547 17996203.891998 1709913393.7325 3.0457403170174e+16
2622	23046444 2856 606996 84070333 572.417 86072.408 96 6.408 6.417 615.285 3943.497069
2624	23049300 3805 845046 84295181 790.408 86290.408 96 17627061.091792 17996205.526998 1709916797.7019 3.0457524081489e+16
2625	23053105 2856 845046 84295181 790.408 86290.408 96 6.408 6.408 615.168 3941.996544
2627	23055961 3806 861457 84311567 807.208 86307.208 96 17794480.231883 17997949.226999 1718036614.0264 3.0746690327283e+16
2628	23059767 2856 861457 84311567 807.208 86307.208 96 3.208 3.208 307.968 987.961344
2630	23062623 3807 642762 84100564 620.217 86120.208 96 17794438.893098 17997947.126999 1718035073.41 3.0746635274007e+16
2631	23066430 2856 642762 84100564 620.217 86120.208 96 3.208 3.226 308.049 988.481931
2633	23069286 3806 721011 84163715 656.208 86156.208 96 17794482.496883 17997951.491999 1718036831.4664 3.0746698109989e+16
2634	23073092 2856 721011 84163715 656.208 86156.208 96 3.208 3.208 307.968 987.961344
2642	23075948 3806 282136 83851526 328.208 85828.208 96 17794487.416883 17997956.411999 1718037303.7864 3.0746715015474e+16
2643	23079754 2856 282136 83851526 328.208 85828.208 96 3.208 3.208 307.968 987.961344
2645	23082610 3806 778485 84228909 703.208 86203.208 96 17794481.791883 17997950.786999 1718036763.7864 3.0746695687557e+16
2646	23086416 2856 778485 84228909 703.208 86203.208 96 3.208 3.208 307.968 987.961344
2648	23089272 3801 583757 84056487 560.808 86060.808 96 17920048.471952 17999260.887 1724126849.2297 3.0964774089407e+16
2649	23093073 2856 583757 84056487 560.808 86060.808 96 0.808 0.808 77.568 62.674944
2651	23095929 3805 267496 83842724 320.408 85820.408 96 17627068.141792 17996212.576998 1709917474.5019 3.045754819132e+16
2652	23099734 2856 267496 83842724 320.408 85820.408 96 6.408 6.408 615.168 3941.996544
2654	23102590 3800 131818 83688618 167.808 85667.808 96 17920054.366952 17999266.782 1724127415.1497 3.0964794416866e+16
2655	23106390 2855 131818 83688618 167.808 85667.808 96 0.808 0.808 77.568 62.674944
2657	23109245 3801 666466 84125310 636.808 86136.808 96 17920047.331952 17999259.747 1724126739.7897 3.0964770158398e+16
2658	23113046 2856 666466 84125310 636.808 86136.808 96 0.808 0.808 77.568 62.674944
2663	23115902 3805 627866 84089640 589.408 86089.408 96 17627064.106792 17996208.541998 1709917087.1419 3.0457534392288e+16
2664	23119707 2856 627866 84089640 589.408 86089.408 96 6.408 6.408 615.168 3941.996544
2666	23122563 3806 626654 84088428 588.208 86088.208 96 17794483.516883 17997952.511999 1718036929.3864 3.0746701614785e+16
2667	23126369 2856 626654 84088428 588.208 86088.208 96 3.208 3.208 307.968 987.961344
2669	23129225 3805 214317 83784804 254.808 85754.808 96 17919974.584112 17999265.477 1724123258.0685 3.0964645192179e+16
2670	23133030 2855 214317 83784804 254.808 85754.808 96 0.808 0.817 77.712 62.908944
2672	23135885 3805 639320 84097156 606.408 86106.408 96 17627063.851792 17996208.286998 1709917062.6619 3.045753352023e+16
2673	23139690 2856 639320 84097156 606.408 86106.408 96 6.408 6.408 615.168 3941.996544
2675	23142546 3801 467815 83958944 447.808 85947.808 96 17920050.166952 17999262.582 1724127011.9497 3.0964779934198e+16
2676	23146347 2856 467815 83958944 447.808 85947.808 96 0.808 0.808 77.568 62.674944
2678	23149203 3801 455683 83953908 439.808 85939.808 96 17920050.286952 17999262.702 1724127023.4697 3.0964780347988e+16
2679	23153004 2856 455683 83953908 439.808 85939.808 96 0.808 0.808 77.568 62.674944
2681	23155860 3796 78529 83646838 92.808 85592.808 96 17920055.491952 17999267.907 1724127523.1497 3.0964798296153e+16
2682	23159656 2851 78529 83646838 92.808 85592.808 96 0.808 0.808 77.568 62.674944
2684	23162507 3805 313687 83866720 353.408 85853.408 96 17627067.646792 17996212.081998 1709917426.9819 3.0457546498502e+16
2685	23166312 2856 313687 83866720 353.408 85853.408 96 6.408 6.408 615.168 3941.996544
2687	23169168 3801 528287 84005804 501.808 86001.808 96 17920049.356952 17999261.772 1724126934.1897 3.0964777141112e+16
2688	23172969 2856 528287 84005804 501.808 86001.808 96 0.808 0.808 77.568 62.674944
2693	23175825 3805 566928 84040828 551.408 86051.408 96 17627064.676792 17996209.111998 1709917141.8619 3.0457536341593e+16
2694	23179630 2856 566928 84040828 551.408 86051.408 96 6.408 6.408 615.168 3941.996544
2696	23182486 3802 356774 83888399 366.808 85866.808 96 17919918.950597 17999263.797 1724120060.6756 3.0964530413677e+16
2697	23186288 2856 356774 83888399 366.808 85866.808 96 0.808 0.826 77.811 63.070143
2699	23189144 3805 391367 83921531 381.408 85881.408 96 17627067.226792 17996211.661998 1709917386.6619 3.0457545062171e+16
2700	23192949 2856 391367 83921531 381.408 85881.408 96 6.408 6.408 615.168 3941.996544
